  
       XFOIL         Version 6.99
  
 Calculated polar for: MORPHED_PROFILE                                 
  
 1 1 Reynolds number fixed          Mach number fixed         
  
 xtrf =   1.000 (top)        1.000 (bottom)  
 Mach =   0.000     Re =     0.600 e 6     Ncrit =   9.000  9.000
  
   alpha    CL        CD       CDp       CM     Top_Xtr  Bot_Xtr  Top_Itr  Bot_Itr
  ------ -------- --------- --------- -------- -------- -------- -------- --------
   0.000   0.8778   0.00788   0.00164  -0.1590   0.7293   0.6686  18.8455 139.4722
   0.500   0.9313   0.00764   0.00151  -0.1583   0.7148   0.7117  19.7455 142.1901
   1.000   0.9838   0.00713   0.00135  -0.1572   0.6945   1.0000  21.0319 160.0000
   1.500   1.0315   0.00725   0.00105  -0.1552   0.6247   1.0000  26.4259 160.0000
   2.000   1.0717   0.00813   0.00124  -0.1521   0.5692   1.0000  30.0318 160.0000
   2.500   1.1183   0.00874   0.00144  -0.1503   0.5379   1.0000  31.9196 160.0000
   3.000   1.1659   0.00926   0.00161  -0.1487   0.5133   1.0000  33.4007 160.0000
   3.500   1.2118   0.00981   0.00177  -0.1469   0.4894   1.0000  34.8354 160.0000
   4.000   1.2565   0.01037   0.00192  -0.1448   0.4631   1.0000  36.4116 160.0000
   4.500   1.2991   0.01097   0.00207  -0.1424   0.4386   1.0000  37.8927 160.0000
   5.000   1.3406   0.01153   0.00221  -0.1397   0.4143   1.0000  39.3623 160.0000
   5.500   1.3766   0.01224   0.00237  -0.1360   0.3862   1.0000  41.0902 160.0000
   6.000   1.4103   0.01313   0.00262  -0.1322   0.3494   1.0000  43.4022 160.0000
   6.500   1.4380   0.01441   0.00304  -0.1276   0.3027   1.0000  46.3690 160.0000
   7.000   1.4597   0.01615   0.00371  -0.1224   0.2459   1.0000  50.0435 160.0000
   7.500   1.4770   0.01832   0.00464  -0.1170   0.1836   1.0000  54.1847 160.0000
   8.000   1.4918   0.02077   0.00581  -0.1116   0.1285   1.0000  58.0441 160.0000
   8.500   1.5079   0.02327   0.00708  -0.1067   0.0894   1.0000  61.0589 160.0000
   9.000   1.5260   0.02571   0.00838  -0.1024   0.0661   1.0000  63.1445 160.0000
   9.500   1.5446   0.02820   0.00974  -0.0984   0.0524   1.0000  64.6147 160.0000
  10.000   1.5621   0.03085   0.01125  -0.0946   0.0438   1.0000  65.6971 160.0000
