  
       XFOIL         Version 6.99
  
 Calculated polar for: MORPHED_PROFILE                                 
  
 1 1 Reynolds number fixed          Mach number fixed         
  
 xtrf =   1.000 (top)        1.000 (bottom)  
 Mach =   0.000     Re =     0.600 e 6     Ncrit =   9.000  9.000
  
   alpha    CL        CD       CDp       CM     Top_Xtr  Bot_Xtr  Top_Itr  Bot_Itr
  ------ -------- --------- --------- -------- -------- -------- -------- --------
   0.000   0.7940   0.01084   0.00202  -0.1175   0.3110   0.6492  44.8769 138.2226
   0.500   0.8430   0.01106   0.00216  -0.1162   0.2939   0.6861  45.9271 140.7090
   1.000   0.8928   0.01075   0.00235  -0.1149   0.2843   1.0000  46.5216 160.0000
   1.500   0.9416   0.01128   0.00255  -0.1136   0.2761   1.0000  47.0226 160.0000
   2.000   0.9924   0.01164   0.00271  -0.1127   0.2710   1.0000  47.3406 160.0000
   2.500   1.0412   0.01211   0.00290  -0.1115   0.2662   1.0000  47.6392 160.0000
   3.000   1.0877   0.01272   0.00316  -0.1099   0.2615   1.0000  47.9321 160.0000
   3.500   1.1356   0.01320   0.00338  -0.1086   0.2587   1.0000  48.1097 160.0000
   4.000   1.1832   0.01365   0.00358  -0.1072   0.2555   1.0000  48.3102 160.0000
   4.500   1.2279   0.01417   0.00380  -0.1053   0.2525   1.0000  48.4983 160.0000
   5.000   1.2716   0.01477   0.00404  -0.1033   0.2496   1.0000  48.6826 160.0000
   5.500   1.3144   0.01557   0.00436  -0.1013   0.2457   1.0000  48.9244 160.0000
   6.000   1.3590   0.01623   0.00465  -0.0996   0.2433   1.0000  49.0790 160.0000
   6.500   1.4034   0.01683   0.00493  -0.0979   0.2411   1.0000  49.2183 160.0000
   7.000   1.4467   0.01748   0.00520  -0.0962   0.2381   1.0000  49.4106 160.0000
   7.500   1.4895   0.01820   0.00549  -0.0944   0.2352   1.0000  49.5914 160.0000
   8.000   1.5315   0.01903   0.00578  -0.0926   0.2319   1.0000  49.8057 160.0000
   8.500   1.5736   0.01995   0.00609  -0.0909   0.2275   1.0000  50.0854 160.0000
   9.000   1.6066   0.02055   0.00619  -0.0880   0.2205   1.0000  50.5449 160.0000
   9.500   1.6407   0.02156   0.00637  -0.0855   0.2127   1.0000  51.0587 160.0000
  10.000   1.6778   0.02233   0.00660  -0.0835   0.2069   1.0000  51.4532 160.0000
