  
       XFOIL         Version 6.99
  
 Calculated polar for: VALIDATION_NACA4412                             
  
 1 1 Reynolds number fixed          Mach number fixed         
  
 xtrf =   1.000 (top)        1.000 (bottom)  
 Mach =   0.000     Re =     0.200 e 6     Ncrit =   9.000  9.000
  
   alpha    CL        CD       CDp       CM     Top_Xtr  Bot_Xtr  Top_Itr  Bot_Itr
  ------ -------- --------- --------- -------- -------- -------- -------- --------
   0.000   0.4935   0.01006   0.00308  -0.1070   0.7757   1.0000  16.5307 160.0000
   1.000   0.5985   0.01039   0.00281  -0.1049   0.7243   1.0000  19.6898 160.0000
   2.000   0.7035   0.01097   0.00280  -0.1031   0.6748   1.0000  22.7276 160.0000
   3.000   0.8083   0.01171   0.00296  -0.1014   0.6289   1.0000  25.5550 160.0000
   4.000   0.9129   0.01257   0.00320  -0.0999   0.5866   1.0000  28.1637 160.0000
   5.000   1.0153   0.01351   0.00354  -0.0980   0.5446   1.0000  30.7507 160.0000
   6.000   1.1119   0.01442   0.00366  -0.0949   0.4937   1.0000  33.8713 160.0000
   7.000   1.2003   0.01536   0.00373  -0.0906   0.4332   1.0000  37.6089 160.0000
   8.000   1.2799   0.01671   0.00395  -0.0850   0.3636   1.0000  41.9956 160.0000
   9.000   1.3269   0.01945   0.00478  -0.0746   0.2403   1.0000  49.9998 160.0000
  10.000   1.3278   0.02557   0.00805  -0.0599   0.1187   1.0000  58.3730 160.0000
  11.000   1.3434   0.03209   0.01223  -0.0502   0.0889   1.0000  60.6371 160.0000
  12.000   1.3651   0.03912   0.01682  -0.0435   0.0746   1.0000  61.8646 160.0000
