  
       XFOIL         Version 6.99
  
 Calculated polar for: VALIDATION_NACA4412                             
  
 1 1 Reynolds number fixed          Mach number fixed         
  
 xtrf =   1.000 (top)        1.000 (bottom)  
 Mach =   0.000     Re =     0.200 e 6     Ncrit =   9.000  9.000
  
   alpha    CL        CD       CDp       CM     Top_Xtr  Bot_Xtr  Top_Itr  Bot_Itr
  ------ -------- --------- --------- -------- -------- -------- -------- --------
   0.000   0.4871   0.01002   0.00298  -0.1077   0.7654   1.0000  16.8725 160.0000
   1.000   0.5913   0.01040   0.00272  -0.1055   0.7136   1.0000  20.0645 160.0000
   2.000   0.6960   0.01102   0.00273  -0.1038   0.6652   1.0000  23.0487 160.0000
   3.000   0.8007   0.01178   0.00297  -0.1022   0.6219   1.0000  25.7095 160.0000
   4.000   0.9067   0.01268   0.00325  -0.1010   0.5849   1.0000  27.9814 160.0000
   5.000   1.0100   0.01364   0.00368  -0.0994   0.5484   1.0000  30.2315 160.0000
   6.000   1.1102   0.01458   0.00400  -0.0972   0.5084   1.0000  32.6937 160.0000
   7.000   1.2030   0.01547   0.00406  -0.0936   0.4588   1.0000  35.7558 160.0000
   8.000   1.2875   0.01650   0.00415  -0.0887   0.4011   1.0000  39.3534 160.0000
   9.000   1.3536   0.01817   0.00441  -0.0810   0.3158   1.0000  44.8593 160.0000
  10.000   1.3728   0.02233   0.00609  -0.0674   0.1840   1.0000  53.6781 160.0000
  11.000   1.3668   0.02969   0.01048  -0.0546   0.0991   1.0000  59.9008 160.0000
  12.000   1.3680   0.03819   0.01625  -0.0464   0.0722   1.0000  62.2289 160.0000
