  
       XFOIL         Version 6.99
  
 Calculated polar for: NACA 6508                                       
  
 1 1 Reynolds number fixed          Mach number fixed         
  
 xtrf =   1.000 (top)        1.000 (bottom)  
 Mach =   0.200     Re =     0.500 e 6     Ncrit =   9.000
  
   alpha    CL        CD       CDp       CM     Top_Xtr  Bot_Xtr
  ------ -------- --------- --------- -------- -------- --------
   4.000   1.2145   0.00816   0.00359  -0.1838   0.6607   1.0000
