  
       XFOIL         Version 6.99
  
 Calculated polar for: NACA 5310                                       
  
 1 1 Reynolds number fixed          Mach number fixed         
  
 xtrf =   1.000 (top)        1.000 (bottom)  
 Mach =   0.100     Re =     0.600 e 6     Ncrit =   9.000
  
   alpha    CL        CD       CDp       CM     Top_Xtr  Bot_Xtr
  ------ -------- --------- --------- -------- -------- --------
  10.000   1.5127   0.01891   0.01194  -0.0852   0.0655   1.0000
