  
       XFOIL         Version 6.99
  
 Calculated polar for: MORPHED_PROFILE                                 
  
 1 1 Reynolds number fixed          Mach number fixed         
  
 xtrf =   1.000 (top)        1.000 (bottom)  
 Mach =   0.000     Re =     0.200 e 6     Ncrit =   9.000  9.000
  
   alpha    CL        CD       CDp       CM     Top_Xtr  Bot_Xtr  Top_Itr  Bot_Itr
  ------ -------- --------- --------- -------- -------- -------- -------- --------
   1.000   1.5544   0.08662   0.04835  -0.2274   0.5712   0.6410  34.1110 137.2905
   1.500   1.6415   0.08165   0.04137  -0.2293   0.5449   0.6617  35.8338 139.8642
   2.000   1.7128   0.07815   0.03611  -0.2295   0.5085   0.6770  37.9034 141.2004
   2.500   1.7544   0.07794   0.03424  -0.2267   0.4709   0.6882  39.9451 142.0289
   3.000   1.7835   0.07922   0.03390  -0.2229   0.4332   0.6979  41.9864 142.6477
   3.500   1.8048   0.08157   0.03462  -0.2185   0.3919   0.7062  44.2364 143.1596
   4.000   1.8192   0.08470   0.03607  -0.2137   0.3386   0.7149  47.2337 143.6670
   4.500   1.8202   0.08917   0.03886  -0.2078   0.2620   0.7225  51.6875 144.1020
   5.000   1.8067   0.09517   0.04362  -0.2011   0.1683   0.7315  57.4107 144.5931
