
 ===================================================
  XFOIL Version 6.99
  Copyright (C) 2000   Mark Drela, Harold Youngren

  This software comes with ABSOLUTELY NO WARRANTY,
    subject to the GNU General Public License.

  Caveat computor
 ===================================================

 File  xfoil.def  not found

   QUIT    Exit program

  .OPER    Direct operating point(s)
  .MDES    Complex mapping design routine
  .QDES    Surface speed design routine
  .GDES    Geometry design routine

   SAVE f  Write airfoil to labeled coordinate file
   PSAV f  Write airfoil to plain coordinate file
   ISAV f  Write airfoil to ISES coordinate file
   MSAV f  Write airfoil to MSES coordinate file
   REVE    Reverse written-airfoil node ordering
   DELI i  Change written-airfoil file delimiters

   LOAD f  Read buffer airfoil from coordinate file
   NACA i  Set NACA 4,5-digit airfoil and buffer airfoil
   INTE    Set buffer airfoil by interpolating two airfoils
   NORM    Buffer airfoil normalization toggle
   HALF    Halve the number of points in buffer airfoil
   XYCM rr Change CM reference location, currently  0.25000 0.00000

   BEND    Display structural properties of current airfoil

   PCOP    Set current-airfoil panel nodes directly from buffer airfoil points
   PANE    Set current-airfoil panel nodes ( 160 ) based on curvature
  .PPAR    Show/change paneling

  .PLOP    Plotting options

   WDEF f  Write  current-settings file
   RDEF f  Reread current-settings file
   NAME s  Specify new airfoil name
   NINC    Increment name version number

   Z       Zoom    | (available in all menus)
   U       Unzoom  | 

 XFOIL   c>  
 Labeled airfoil file.  Name:  MORPHED_PROFILE                                 

 Number of input coordinate points: 160
 Counterclockwise ordering
 Max thickness =     0.120044  at x =   0.301
 Max camber    =     0.050416  at x =   0.462

  LE  x,y  =   0.00001   0.00053  |   Chord =   1.00054
  TE  x,y  =   1.00000  -0.03273  |

 Current airfoil nodes set from buffer airfoil nodes ( 160 )

 XFOIL   c>  
 Blunt trailing edge.  Gap =  0.00252

 Paneling parameters used...
   Number of panel nodes       160
   Panel bunching parameter    1.000
   TE/LE panel density ratio   0.150
   Refined-area/LE panel density ratio    0.200
   Top    side refined area x/c limits  1.000 1.000
   Bottom side refined area x/c limits  1.000 1.000

 XFOIL   c>  
.OPERi   c>  
 M  =    0.0000
 Re =  0.6000E+06

.OPERv   c>  
.OPERv   c>  
 Polar  1 newly created for accumulation
 Airfoil archived with polar: MORPHED_PROFILE                                 

Enter  polar save filename  OR  <return> for no file   s>  
 New polar save file available

Enter  polar dump filename  OR  <return> for no file   s>  
 Polar dump file will NOT be written

 Polar accumulation enabled

.OPERva   c>   Calculating unit vorticity distributions ...
 Calculating wake trajectory ...
 Calculating source influence matrix ...

 Solving BL system ...

 Initializing BL ...
    side            1  ...
 MRCHUE: Inverse mode at  34     Hk =   4.283
 MRCHUE: Inverse mode at  35     Hk =   5.709
 MRCHUE: Inverse mode at  36     Hk =   7.116
 MRCHUE: Inverse mode at  37     Hk =   8.501
 MRCHUE: Inverse mode at  38     Hk =   9.867
 MRCHUE: Inverse mode at  39     Hk =   3.705
 MRCHUE: Inverse mode at  40     Hk =   2.500
 MRCHUE: Inverse mode at  82     Hk =   2.500
 MRCHUE: Inverse mode at  83     Hk =   2.500
 MRCHUE: Inverse mode at  84     Hk =   2.500
 MRCHUE: Convergence failed at  85  side 1    Res =  0.4063E+01
    side            2  ...
 MRCHUE: Inverse mode at  50     Hk =   4.027
 MRCHUE: Inverse mode at  51     Hk =   4.695
 MRCHUE: Inverse mode at  52     Hk =   5.325
 MRCHUE: Inverse mode at  53     Hk =   5.908
 MRCHUE: Inverse mode at  54     Hk =   6.435
 MRCHUE: Inverse mode at  55     Hk =   6.907
 MRCHUE: Inverse mode at  56     Hk =   4.576
 MRCHUE: Inverse mode at  57     Hk =   2.733

 MRCHDU: Convergence failed at  85  side 1    Res =  0.3496E+01
 Side 1  free  transition at x/c =  0.2616   39
 Side 2  free  transition at x/c =  0.6467   56

   1   rms: 0.2905E+00   max: -.1679E+01   T at   39  1   RLX: 0.298
       a =  0.000      CL =  0.8543
      Cm = -0.1296     CD =  0.00828   =>   CDf =  0.00779    CDp =  0.00049

 Side 1  free  transition at x/c =  0.2705   39
 Side 2  free  transition at x/c =  0.6471   56

   2   rms: 0.1432E+00   max: -.7153E+00   T at   39  1   RLX: 0.699
       a =  0.000      CL =  0.8001
      Cm = -0.1185     CD =  0.01032   =>   CDf =  0.00769    CDp =  0.00264

 MRCHDU: Convergence failed at  39  side 1    Res =  0.4528E+01
 Side 1  free  transition at x/c =  0.2862   39
 Side 2  free  transition at x/c =  0.6490   57

   3   rms: 0.3841E-01   max: -.2267E+00   D at   38  1
       a =  0.000      CL =  0.7913
      Cm = -0.1171     CD =  0.01100   =>   CDf =  0.00720    CDp =  0.00380

 Side 1  free  transition at x/c =  0.3074   40
 Side 2  free  transition at x/c =  0.6488   57

   4   rms: 0.1817E-01   max: -.2886E+00   C at   40  1
       a =  0.000      CL =  0.7935
      Cm = -0.1174     CD =  0.01086   =>   CDf =  0.00716    CDp =  0.00370

 Side 1  free  transition at x/c =  0.3102   41
 Side 2  free  transition at x/c =  0.6491   57

   5   rms: 0.7458E-02   max: -.1059E+00   D at   40  1
       a =  0.000      CL =  0.7941
      Cm = -0.1175     CD =  0.01082   =>   CDf =  0.00711    CDp =  0.00371

 Side 1  free  transition at x/c =  0.3118   41
 Side 2  free  transition at x/c =  0.6492   57

   6   rms: 0.2090E-02   max: 0.2986E-01   C at   41  1
       a =  0.000      CL =  0.7940
      Cm = -0.1175     CD =  0.01084   =>   CDf =  0.00707    CDp =  0.00377

 Side 1  free  transition at x/c =  0.3110   41
 Side 2  free  transition at x/c =  0.6492   57

   7   rms: 0.5992E-04   max: 0.6885E-03   C at   41  1
       a =  0.000      CL =  0.7940
      Cm = -0.1175     CD =  0.01084   =>   CDf =  0.00708    CDp =  0.00376
      9.000    4.4367   0.010837   0.001433   0.001698   0.000265    0.3110     #

 Point added to stored polar  1
 Point written to save file  polar_output.txt                                
 Dump file unspecified or not available
 Calculating wake trajectory ...
 Calculating source influence matrix ...

 Solving BL system ...

 Side 1  free  transition at x/c =  0.3110   41
 Side 2  free  transition at x/c =  0.6492   57

   1   rms: 0.1133E+00   max: -.6557E+00   T at   57  2   RLX: 0.763
       a =  0.500      CL =  0.8296
      Cm = -0.1162     CD =  0.01109   =>   CDf =  0.00698    CDp =  0.00410

 Side 1  free  transition at x/c =  0.2976   41
 Side 2  free  transition at x/c =  0.6636   57

   2   rms: 0.8272E-01   max: -.7019E+00   T at   57  2   RLX: 0.712
       a =  0.500      CL =  0.8397
      Cm = -0.1166     CD =  0.01101   =>   CDf =  0.00726    CDp =  0.00374

 Side 1  free  transition at x/c =  0.2952   41
 Side 2  free  transition at x/c =  0.6746   58

   3   rms: 0.3963E-01   max: -.4204E+00   C at   58  2
       a =  0.500      CL =  0.8433
      Cm = -0.1163     CD =  0.01104   =>   CDf =  0.00723    CDp =  0.00381

 Side 1  free  transition at x/c =  0.2939   41
 Side 2  free  transition at x/c =  0.6940   59

   4   rms: 0.8427E-02   max: -.1602E+00   D at   58  2
       a =  0.500      CL =  0.8430
      Cm = -0.1162     CD =  0.01107   =>   CDf =  0.00705    CDp =  0.00401

 Side 1  free  transition at x/c =  0.2939   41
 Side 2  free  transition at x/c =  0.6862   58

   5   rms: 0.3110E-03   max: -.4354E-02   D at   59  2
       a =  0.500      CL =  0.8430
      Cm = -0.1162     CD =  0.01106   =>   CDf =  0.00706    CDp =  0.00400

 Side 1  free  transition at x/c =  0.2939   41
 Side 2  free  transition at x/c =  0.6861   58

   6   rms: 0.1025E-05   max: 0.2063E-04   C at   58  2
       a =  0.500      CL =  0.8430
      Cm = -0.1162     CD =  0.01106   =>   CDf =  0.00706    CDp =  0.00400
      9.000    4.8631   0.011062   0.001460   0.001755   0.000295    0.2939     #

 Point added to stored polar  1
 Point written to save file  polar_output.txt                                
 Dump file unspecified or not available
 Calculating wake trajectory ...
 Calculating source influence matrix ...

 Solving BL system ...

 Side 1  free  transition at x/c =  0.2939   41
 Side 2  free  transition at x/c =  0.6861   58

   1   rms: 0.1187E+00   max: -.1729E+01   C at   58  2   RLX: 0.289
       a =  1.000      CL =  0.8567
      Cm = -0.1158     CD =  0.01116   =>   CDf =  0.00706    CDp =  0.00409

 Side 1  free  transition at x/c =  0.2904   40
 Side 2  free  transition at x/c =  0.6944   59

   2   rms: 0.1010E+00   max: -.1466E+01   C at   59  2   RLX: 0.341
       a =  1.000      CL =  0.8693
      Cm = -0.1158     CD =  0.01115   =>   CDf =  0.00710    CDp =  0.00404

 Side 1  free  transition at x/c =  0.2883   40
 Side 2  free  transition at x/c =  0.7062   59

   3   rms: 0.5221E-01   max: -.6069E+00   C at   59  2   RLX: 0.824
       a =  1.000      CL =  0.8898
      Cm = -0.1155     CD =  0.01126   =>   CDf =  0.00697    CDp =  0.00429

 Side 1  free  transition at x/c =  0.2848   41
 Side 2 forced transition at x/c =  1.0000   76

   4   rms: 0.2108E-01   max: 0.3289E+00   C at   76  2
       a =  1.000      CL =  0.8925
      Cm = -0.1148     CD =  0.01075   =>   CDf =  0.00642    CDp =  0.00433

 Side 1  free  transition at x/c =  0.2843   41
 Side 2 forced transition at x/c =  1.0000   76

   5   rms: 0.1386E-02   max: 0.1459E-01   D at   57  2
       a =  1.000      CL =  0.8928
      Cm = -0.1149     CD =  0.01075   =>   CDf =  0.00644    CDp =  0.00431

 Side 1  free  transition at x/c =  0.2843   41
 Side 2 forced transition at x/c =  1.0000   76

   6   rms: 0.1695E-04   max: 0.2172E-03   D at   57  2
       a =  1.000      CL =  0.8928
      Cm = -0.1149     CD =  0.01075   =>   CDf =  0.00644    CDp =  0.00431
      9.000    5.2921   0.010754   0.001494   0.001857   0.000363    0.2843     #

 Point added to stored polar  1
 Point written to save file  polar_output.txt                                
 Dump file unspecified or not available
 Calculating wake trajectory ...
 Calculating source influence matrix ...

 Solving BL system ...

 Side 1  free  transition at x/c =  0.2843   41
 Side 2 forced transition at x/c =  1.0000   76

   1   rms: 0.8474E-01   max: -.1673E+00   n at   75  2
       a =  1.500      CL =  0.9428
      Cm = -0.1138     CD =  0.01123   =>   CDf =  0.00644    CDp =  0.00478

 Side 1  free  transition at x/c =  0.2765   40
 Side 2 forced transition at x/c =  1.0000   76

   2   rms: 0.2402E-02   max: -.1643E-01   D at   41  1
       a =  1.500      CL =  0.9416
      Cm = -0.1136     CD =  0.01128   =>   CDf =  0.00659    CDp =  0.00469

 Side 1  free  transition at x/c =  0.2761   40
 Side 2 forced transition at x/c =  1.0000   76

   3   rms: 0.2353E-04   max: 0.1322E-03   D at   56  2
       a =  1.500      CL =  0.9416
      Cm = -0.1136     CD =  0.01128   =>   CDf =  0.00659    CDp =  0.00469
      9.000    5.7139   0.011278   0.001531   0.001949   0.000419    0.2761     #

 Point added to stored polar  1
 Point written to save file  polar_output.txt                                
 Dump file unspecified or not available
 Calculating wake trajectory ...
 Calculating source influence matrix ...

 Solving BL system ...

 Side 1  free  transition at x/c =  0.2761   40
 Side 2 forced transition at x/c =  1.0000   76

   1   rms: 0.8122E-01   max: -.1374E+00   n at   75  2
       a =  2.000      CL =  0.9935
      Cm = -0.1129     CD =  0.01160   =>   CDf =  0.00651    CDp =  0.00508

 Side 1  free  transition at x/c =  0.2708   41
 Side 2 forced transition at x/c =  1.0000   75

   2   rms: 0.2772E-02   max: -.3283E-01   D at   41  1
       a =  2.000      CL =  0.9924
      Cm = -0.1127     CD =  0.01164   =>   CDf =  0.00663    CDp =  0.00501

 Side 1  free  transition at x/c =  0.2710   41
 Side 2 forced transition at x/c =  1.0000   75

   3   rms: 0.4635E-04   max: 0.4973E-03   C at   41  1
       a =  2.000      CL =  0.9924
      Cm = -0.1127     CD =  0.01164   =>   CDf =  0.00663    CDp =  0.00502
      9.000    6.0465   0.011644   0.001572   0.002048   0.000476    0.2710     #

 Point added to stored polar  1
 Point written to save file  polar_output.txt                                
 Dump file unspecified or not available
 Calculating wake trajectory ...
 Calculating source influence matrix ...

 Solving BL system ...

 Side 1  free  transition at x/c =  0.2710   41
 Side 2 forced transition at x/c =  1.0000   75

   1   rms: 0.8194E-01   max: -.1465E+00   n at   74  2
       a =  2.500      CL =  1.0423
      Cm = -0.1117     CD =  0.01207   =>   CDf =  0.00663    CDp =  0.00544

 Side 1  free  transition at x/c =  0.2663   41
 Side 2 forced transition at x/c =  1.0000   75

   2   rms: 0.1470E-02   max: -.9205E-02   D at   41  1
       a =  2.500      CL =  1.0412
      Cm = -0.1115     CD =  0.01211   =>   CDf =  0.00670    CDp =  0.00541

 Side 1  free  transition at x/c =  0.2662   41
 Side 2 forced transition at x/c =  1.0000   75

   3   rms: 0.7092E-05   max: 0.4350E-04   D at   55  2
       a =  2.500      CL =  1.0412
      Cm = -0.1115     CD =  0.01211   =>   CDf =  0.00670    CDp =  0.00541
      9.000    6.3462   0.012112   0.001611   0.002164   0.000554    0.2662     #

 Point added to stored polar  1
 Point written to save file  polar_output.txt                                
 Dump file unspecified or not available
 Calculating wake trajectory ...
 Calculating source influence matrix ...

 Solving BL system ...

 Side 1  free  transition at x/c =  0.2662   41
 Side 2 forced transition at x/c =  1.0000   75

   1   rms: 0.7539E-01   max: -.1003E+00   C at   75  2
       a =  3.000      CL =  1.0893
      Cm = -0.1102     CD =  0.01264   =>   CDf =  0.00660    CDp =  0.00603

 Side 1  free  transition at x/c =  0.2621   42
 Side 2 forced transition at x/c =  1.0000   74

   2   rms: 0.3468E-02   max: -.2776E-01   D at    3  1
       a =  3.000      CL =  1.0877
      Cm = -0.1099     CD =  0.01271   =>   CDf =  0.00677    CDp =  0.00595

 Side 1  free  transition at x/c =  0.2616   42
 Side 2 forced transition at x/c =  1.0000   74

   3   rms: 0.2102E-03   max: -.1494E-02   D at   42  1
       a =  3.000      CL =  1.0877
      Cm = -0.1099     CD =  0.01272   =>   CDf =  0.00677    CDp =  0.00594

 Side 1  free  transition at x/c =  0.2615   42
 Side 2 forced transition at x/c =  1.0000   74

   4   rms: 0.1344E-05   max: -.5315E-05   C at   74  2
       a =  3.000      CL =  1.0877
      Cm = -0.1099     CD =  0.01272   =>   CDf =  0.00677    CDp =  0.00594
      9.000    6.7038   0.012716   0.001652   0.002301   0.000649    0.2615     #

 Point added to stored polar  1
 Point written to save file  polar_output.txt                                
 Dump file unspecified or not available
 Calculating wake trajectory ...
 Calculating source influence matrix ...

 Solving BL system ...

 Side 1  free  transition at x/c =  0.2615   42
 Side 2 forced transition at x/c =  1.0000   74

   1   rms: 0.7575E-01   max: -.1064E+00   C at   74  2
       a =  3.500      CL =  1.1327
      Cm = -0.1081     CD =  0.01346   =>   CDf =  0.00667    CDp =  0.00679

 Side 1  free  transition at x/c =  0.2579   42
 Side 2 forced transition at x/c =  1.0000   73

   2   rms: 0.1742E-01   max: -.1824E+00   D at   42  1
       a =  3.500      CL =  1.1348
      Cm = -0.1084     CD =  0.01319   =>   CDf =  0.00679    CDp =  0.00641

 Side 1  free  transition at x/c =  0.2588   42
 Side 2 forced transition at x/c =  1.0000   73

   3   rms: 0.1251E-02   max: 0.6926E-02   D at   42  1
       a =  3.500      CL =  1.1356
      Cm = -0.1086     CD =  0.01320   =>   CDf =  0.00676    CDp =  0.00643

 Side 1  free  transition at x/c =  0.2587   42
 Side 2 forced transition at x/c =  1.0000   73

   4   rms: 0.1483E-04   max: 0.7577E-04   D at   89  1
       a =  3.500      CL =  1.1356
      Cm = -0.1086     CD =  0.01320   =>   CDf =  0.00677    CDp =  0.00643
      9.000    7.0055   0.013198   0.001698   0.002422   0.000724    0.2587     #

 Point added to stored polar  1
 Point written to save file  polar_output.txt                                
 Dump file unspecified or not available
 Calculating wake trajectory ...
 Calculating source influence matrix ...

 Solving BL system ...

 Side 1  free  transition at x/c =  0.2587   42
 Side 2 forced transition at x/c =  1.0000   73

   1   rms: 0.7372E-01   max: -.9042E-01   C at   73  2
       a =  4.000      CL =  1.1843
      Cm = -0.1074     CD =  0.01363   =>   CDf =  0.00677    CDp =  0.00686

 Side 1  free  transition at x/c =  0.2554   42
 Side 2 forced transition at x/c =  1.0000   73

   2   rms: 0.2201E-02   max: -.2790E-01   D at   42  1
       a =  4.000      CL =  1.1832
      Cm = -0.1072     CD =  0.01365   =>   CDf =  0.00676    CDp =  0.00690

 Side 1  free  transition at x/c =  0.2555   42
 Side 2 forced transition at x/c =  1.0000   73

   3   rms: 0.1681E-04   max: 0.1695E-03   D at   42  1
       a =  4.000      CL =  1.1832
      Cm = -0.1072     CD =  0.01365   =>   CDf =  0.00675    CDp =  0.00690
      9.000    7.1680   0.013652   0.001749   0.002518   0.000769    0.2555     #

 Point added to stored polar  1
 Point written to save file  polar_output.txt                                
 Dump file unspecified or not available
 Calculating wake trajectory ...
 Calculating source influence matrix ...

 Solving BL system ...

 Side 1  free  transition at x/c =  0.2555   42
 Side 2 forced transition at x/c =  1.0000   73

   1   rms: 0.7267E-01   max: -.9326E-01   C at   73  2
       a =  4.500      CL =  1.2297
      Cm = -0.1056     CD =  0.01414   =>   CDf =  0.00662    CDp =  0.00752

 Side 1  free  transition at x/c =  0.2527   43
 Side 2 forced transition at x/c =  1.0000   72

   2   rms: 0.3965E-02   max: -.4115E-01   D at    3  1
       a =  4.500      CL =  1.2279
      Cm = -0.1053     CD =  0.01417   =>   CDf =  0.00673    CDp =  0.00743

 Side 1  free  transition at x/c =  0.2525   43
 Side 2 forced transition at x/c =  1.0000   72

   3   rms: 0.5907E-03   max: -.5835E-02   D at    4  1
       a =  4.500      CL =  1.2279
      Cm = -0.1053     CD =  0.01417   =>   CDf =  0.00673    CDp =  0.00743

 Side 1  free  transition at x/c =  0.2525   43
 Side 2 forced transition at x/c =  1.0000   72

   4   rms: 0.3398E-06   max: -.3355E-05   D at    9  1
       a =  4.500      CL =  1.2279
      Cm = -0.1053     CD =  0.01417   =>   CDf =  0.00673    CDp =  0.00743
      9.000    7.4076   0.014165   0.001800   0.002628   0.000828    0.2525     #

 Point added to stored polar  1
 Point written to save file  polar_output.txt                                
 Dump file unspecified or not available
 Calculating wake trajectory ...
 Calculating source influence matrix ...

 Solving BL system ...

 Side 1  free  transition at x/c =  0.2525   43
 Side 2 forced transition at x/c =  1.0000   72

   1   rms: 0.7181E-01   max: -.1101E+00   C at   72  2
       a =  5.000      CL =  1.2725
      Cm = -0.1034     CD =  0.01472   =>   CDf =  0.00673    CDp =  0.00799

 Side 1  free  transition at x/c =  0.2496   43
 Side 2 forced transition at x/c =  1.0000   72

   2   rms: 0.1201E-02   max: -.1289E-01   D at   43  1
       a =  5.000      CL =  1.2716
      Cm = -0.1033     CD =  0.01477   =>   CDf =  0.00673    CDp =  0.00803

 Side 1  free  transition at x/c =  0.2496   43
 Side 2 forced transition at x/c =  1.0000   72

   3   rms: 0.1633E-04   max: 0.1307E-03   C at   72  2
       a =  5.000      CL =  1.2716
      Cm = -0.1033     CD =  0.01477   =>   CDf =  0.00673    CDp =  0.00803
      9.000    7.6574   0.014767   0.001853   0.002783   0.000930    0.2496     #

 Point added to stored polar  1
 Point written to save file  polar_output.txt                                
 Dump file unspecified or not available
 Calculating wake trajectory ...
 Calculating source influence matrix ...

 Solving BL system ...

 Side 1  free  transition at x/c =  0.2496   43
 Side 2 forced transition at x/c =  1.0000   72

   1   rms: 0.7200E-01   max: -.1035E+00   C at   72  2
       a =  5.500      CL =  1.3155
      Cm = -0.1014     CD =  0.01544   =>   CDf =  0.00658    CDp =  0.00886

 Side 1  free  transition at x/c =  0.2461   44
 Side 2 forced transition at x/c =  1.0000   71

   2   rms: 0.5402E-02   max: -.7034E-01   D at    3  1
       a =  5.500      CL =  1.3144
      Cm = -0.1013     CD =  0.01557   =>   CDf =  0.00675    CDp =  0.00882

 Side 1  free  transition at x/c =  0.2457   44
 Side 2 forced transition at x/c =  1.0000   71

   3   rms: 0.5761E-03   max: -.4616E-02   D at    4  1
       a =  5.500      CL =  1.3144
      Cm = -0.1013     CD =  0.01557   =>   CDf =  0.00675    CDp =  0.00882

 Side 1  free  transition at x/c =  0.2457   44
 Side 2 forced transition at x/c =  1.0000   71

   4   rms: 0.2490E-05   max: -.1358E-04   C at   71  2
       a =  5.500      CL =  1.3144
      Cm = -0.1013     CD =  0.01557   =>   CDf =  0.00675    CDp =  0.00882
      9.000    7.9600   0.015568   0.001900   0.002987   0.001086    0.2457     #

 Point added to stored polar  1
 Point written to save file  polar_output.txt                                
 Dump file unspecified or not available
 Calculating wake trajectory ...
 Calculating source influence matrix ...

 Solving BL system ...

 Side 1  free  transition at x/c =  0.2457   44
 Side 2 forced transition at x/c =  1.0000   71

   1   rms: 0.7624E-01   max: 0.9702E-01   D at   82  2
       a =  6.000      CL =  1.3587
      Cm = -0.0997     CD =  0.01660   =>   CDf =  0.00659    CDp =  0.01001

 Side 1  free  transition at x/c =  0.2427   44
 Side 2 forced transition at x/c =  1.0000   70

   2   rms: 0.1917E-01   max: -.1681E+00   D at   44  1
       a =  6.000      CL =  1.3571
      Cm = -0.0993     CD =  0.01624   =>   CDf =  0.00671    CDp =  0.00953

 Side 1  free  transition at x/c =  0.2433   44
 Side 2 forced transition at x/c =  1.0000   70

   3   rms: 0.2587E-02   max: -.1267E-01   D at   90  1
       a =  6.000      CL =  1.3590
      Cm = -0.0996     CD =  0.01623   =>   CDf =  0.00668    CDp =  0.00954

 Side 1  free  transition at x/c =  0.2433   44
 Side 2 forced transition at x/c =  1.0000   70

   4   rms: 0.4890E-04   max: 0.4387E-03   D at   89  1
       a =  6.000      CL =  1.3590
      Cm = -0.0996     CD =  0.01623   =>   CDf =  0.00669    CDp =  0.00954
      9.000    8.2301   0.016229   0.001948   0.003142   0.001195    0.2433     #

 Point added to stored polar  1
 Point written to save file  polar_output.txt                                
 Dump file unspecified or not available
 Calculating wake trajectory ...
 Calculating source influence matrix ...

 Solving BL system ...

 Side 1  free  transition at x/c =  0.2433   44
 Side 2 forced transition at x/c =  1.0000   70

   1   rms: 0.7164E-01   max: -.8085E-01   C at   70  2
       a =  6.500      CL =  1.4042
      Cm = -0.0981     CD =  0.01680   =>   CDf =  0.00669    CDp =  0.01011

 Side 1  free  transition at x/c =  0.2412   44
 Side 2 forced transition at x/c =  1.0000   70

   2   rms: 0.2079E-02   max: -.1705E-01   D at    5  1
       a =  6.500      CL =  1.4034
      Cm = -0.0979     CD =  0.01683   =>   CDf =  0.00660    CDp =  0.01023

 Side 1  free  transition at x/c =  0.2411   44
 Side 2 forced transition at x/c =  1.0000   70

   3   rms: 0.2181E-04   max: 0.1399E-03   C at   70  2
       a =  6.500      CL =  1.4034
      Cm = -0.0979     CD =  0.01683   =>   CDf =  0.00660    CDp =  0.01023
      9.000    8.4282   0.016831   0.002002   0.003256   0.001254    0.2411     #

 Point added to stored polar  1
 Point written to save file  polar_output.txt                                
 Dump file unspecified or not available
 Calculating wake trajectory ...
 Calculating source influence matrix ...

 Solving BL system ...

 Side 1  free  transition at x/c =  0.2411   44
 Side 2 forced transition at x/c =  1.0000   70

   1   rms: 0.7089E-01   max: -.7379E-01   C at   70  2
       a =  7.000      CL =  1.4478
      Cm = -0.0963     CD =  0.01747   =>   CDf =  0.00641    CDp =  0.01105

 Side 1  free  transition at x/c =  0.2379   45
 Side 2 forced transition at x/c =  1.0000   69

   2   rms: 0.5436E-02   max: -.4689E-01   D at    3  1
       a =  7.000      CL =  1.4465
      Cm = -0.0961     CD =  0.01748   =>   CDf =  0.00652    CDp =  0.01096

 Side 1  free  transition at x/c =  0.2381   45
 Side 2 forced transition at x/c =  1.0000   69

   3   rms: 0.7431E-03   max: -.7408E-02   D at    4  1
       a =  7.000      CL =  1.4467
      Cm = -0.0962     CD =  0.01748   =>   CDf =  0.00651    CDp =  0.01096

 Side 1  free  transition at x/c =  0.2381   45
 Side 2 forced transition at x/c =  1.0000   69

   4   rms: 0.1794E-05   max: -.7747E-05   D at   89  2
       a =  7.000      CL =  1.4467
      Cm = -0.0962     CD =  0.01748   =>   CDf =  0.00651    CDp =  0.01096
      9.000    8.5043   0.017477   0.015441   0.003342  -0.012099    0.2381     #

 Point added to stored polar  1
 Point written to save file  polar_output.txt                                
 Dump file unspecified or not available
 Calculating wake trajectory ...
 Calculating source influence matrix ...

 Solving BL system ...

 Side 1  free  transition at x/c =  0.2381   45
 Side 2 forced transition at x/c =  1.0000   69

   1   rms: 0.7051E-01   max: -.6902E-01   C at   69  2
       a =  7.500      CL =  1.4901
      Cm = -0.0945     CD =  0.01817   =>   CDf =  0.00651    CDp =  0.01165

 Side 1  free  transition at x/c =  0.2355   45
 Side 2 forced transition at x/c =  1.0000   69

   2   rms: 0.1334E-02   max: 0.1341E-01   T at   45  1
       a =  7.500      CL =  1.4895
      Cm = -0.0944     CD =  0.01820   =>   CDf =  0.00644    CDp =  0.01176

 Side 1  free  transition at x/c =  0.2352   45
 Side 2 forced transition at x/c =  1.0000   69

   3   rms: 0.3777E-04   max: 0.2395E-03   D at   75  2
       a =  7.500      CL =  1.4895
      Cm = -0.0944     CD =  0.01820   =>   CDf =  0.00645    CDp =  0.01175
      9.000    8.5522   0.018199   0.015790   0.003441  -0.012349    0.2352     #

 Point added to stored polar  1
 Point written to save file  polar_output.txt                                
 Dump file unspecified or not available
 Calculating wake trajectory ...
 Calculating source influence matrix ...

 Solving BL system ...

 Side 1  free  transition at x/c =  0.2352   45
 Side 2 forced transition at x/c =  1.0000   69

   1   rms: 0.7052E-01   max: 0.7039E-01   D at   79  2
       a =  8.000      CL =  1.5324
      Cm = -0.0927     CD =  0.01896   =>   CDf =  0.00624    CDp =  0.01272

 Side 1  free  transition at x/c =  0.2318   46
 Side 2 forced transition at x/c =  1.0000   68

   2   rms: 0.7603E-02   max: -.7917E-01   D at    3  1
       a =  8.000      CL =  1.5312
      Cm = -0.0926     CD =  0.01903   =>   CDf =  0.00640    CDp =  0.01263

 Side 1  free  transition at x/c =  0.2319   46
 Side 2 forced transition at x/c =  1.0000   68

   3   rms: 0.6933E-03   max: 0.4608E-02   D at    4  2
       a =  8.000      CL =  1.5315
      Cm = -0.0926     CD =  0.01903   =>   CDf =  0.00640    CDp =  0.01263

 Side 1  free  transition at x/c =  0.2319   46
 Side 2 forced transition at x/c =  1.0000   68

   4   rms: 0.4834E-05   max: 0.2394E-04   D at   89  1
       a =  8.000      CL =  1.5315
      Cm = -0.0926     CD =  0.01903   =>   CDf =  0.00640    CDp =  0.01263
      9.000    8.4738   0.019030   0.016262   0.003633  -0.012629    0.2319     #

 Point added to stored polar  1
 Point written to save file  polar_output.txt                                
 Dump file unspecified or not available
 Calculating wake trajectory ...
 Calculating source influence matrix ...

 Solving BL system ...

 Side 1  free  transition at x/c =  0.2319   46
 Side 2 forced transition at x/c =  1.0000   68

   1   rms: 0.7301E-01   max: 0.8093E-01   D at   80  2
       a =  8.500      CL =  1.5756
      Cm = -0.0912     CD =  0.02002   =>   CDf =  0.00618    CDp =  0.01384

 Side 1  free  transition at x/c =  0.2271   46
 Side 2 forced transition at x/c =  1.0000   67

   2   rms: 0.2173E-01   max: -.1571E+00   D at   46  1
       a =  8.500      CL =  1.5712
      Cm = -0.0905     CD =  0.01997   =>   CDf =  0.00634    CDp =  0.01363

 Side 1  free  transition at x/c =  0.2276   46
 Side 2 forced transition at x/c =  1.0000   67

   3   rms: 0.3250E-02   max: -.1511E-01   D at   90  1
       a =  8.500      CL =  1.5735
      Cm = -0.0909     CD =  0.01995   =>   CDf =  0.00631    CDp =  0.01363

 Side 1  free  transition at x/c =  0.2275   46
 Side 2 forced transition at x/c =  1.0000   67

   4   rms: 0.5680E-04   max: -.3334E-03   D at   91  1
       a =  8.500      CL =  1.5736
      Cm = -0.0909     CD =  0.01995   =>   CDf =  0.00631    CDp =  0.01363
      9.000    8.4759   0.019948   0.016864   0.003818  -0.013046    0.2275     #

 Point added to stored polar  1
 Point written to save file  polar_output.txt                                
 Dump file unspecified or not available
 Calculating wake trajectory ...
 Calculating source influence matrix ...

 Solving BL system ...

 Side 1  free  transition at x/c =  0.2275   46
 Side 2 forced transition at x/c =  1.0000   67

   1   rms: 0.6989E-01   max: -.3292E+00   C at   46  1
       a =  9.000      CL =  1.6046
      Cm = -0.0876     CD =  0.02048   =>   CDf =  0.00632    CDp =  0.01416

 Side 1  free  transition at x/c =  0.2194   46
 Side 2 forced transition at x/c =  1.0000   67

   2   rms: 0.1776E-01   max: -.1731E+00   D at   46  1
       a =  9.000      CL =  1.6049
      Cm = -0.0878     CD =  0.02057   =>   CDf =  0.00620    CDp =  0.01437

 Side 1  free  transition at x/c =  0.2206   46
 Side 2 forced transition at x/c =  1.0000   67

   3   rms: 0.2361E-02   max: -.1144E-01   D at   88  1
       a =  9.000      CL =  1.6066
      Cm = -0.0880     CD =  0.02054   =>   CDf =  0.00617    CDp =  0.01437

 Side 1  free  transition at x/c =  0.2205   46
 Side 2 forced transition at x/c =  1.0000   67

   4   rms: 0.2534E-04   max: 0.3440E-03   D at   88  1
       a =  9.000      CL =  1.6066
      Cm = -0.0880     CD =  0.02055   =>   CDf =  0.00617    CDp =  0.01437
      9.000    7.5931   0.020546   0.016240   0.003509  -0.012731    0.2205     #

 Point added to stored polar  1
 Point written to save file  polar_output.txt                                
 Dump file unspecified or not available
 Calculating wake trajectory ...
 Calculating source influence matrix ...

 Solving BL system ...

 Side 1  free  transition at x/c =  0.2205   46
 Side 2 forced transition at x/c =  1.0000   67

   1   rms: 0.7159E-01   max: -.2939E+00   D at   46  1
       a =  9.500      CL =  1.6416
      Cm = -0.0856     CD =  0.02133   =>   CDf =  0.00593    CDp =  0.01540

 Side 1  free  transition at x/c =  0.2128   46
 Side 2 forced transition at x/c =  1.0000   66

   2   rms: 0.1043E-01   max: -.6333E-01   D at   47  1
       a =  9.500      CL =  1.6399
      Cm = -0.0854     CD =  0.02157   =>   CDf =  0.00615    CDp =  0.01541

 Side 1  free  transition at x/c =  0.2127   46
 Side 2 forced transition at x/c =  1.0000   66

   3   rms: 0.1307E-02   max: -.8238E-02   D at    4  1
       a =  9.500      CL =  1.6406
      Cm = -0.0855     CD =  0.02156   =>   CDf =  0.00614    CDp =  0.01542

 Side 1  free  transition at x/c =  0.2127   46
 Side 2 forced transition at x/c =  1.0000   66

   4   rms: 0.1705E-04   max: 0.8171E-04   D at   44  2
       a =  9.500      CL =  1.6407
      Cm = -0.0855     CD =  0.02156   =>   CDf =  0.00614    CDp =  0.01542
      9.000    6.2712   0.021562   0.016291   0.003464  -0.012827    0.2127     #

 Point added to stored polar  1
 Point written to save file  polar_output.txt                                
 Dump file unspecified or not available
 Calculating wake trajectory ...
 Calculating source influence matrix ...

 Solving BL system ...

 Side 1  free  transition at x/c =  0.2127   46
 Side 2 forced transition at x/c =  1.0000   66

   1   rms: 0.7223E-01   max: -.4139E+00   C at   46  1
       a = 10.000      CL =  1.6769
      Cm = -0.0834     CD =  0.02220   =>   CDf =  0.00614    CDp =  0.01606

 Side 1  free  transition at x/c =  0.2081   46
 Side 2 forced transition at x/c =  1.0000   66

   2   rms: 0.8750E-02   max: 0.1095E+00   D at   46  1
       a = 10.000      CL =  1.6778
      Cm = -0.0835     CD =  0.02233   =>   CDf =  0.00593    CDp =  0.01641

 Side 1  free  transition at x/c =  0.2069   46
 Side 2 forced transition at x/c =  1.0000   66

   3   rms: 0.2708E-03   max: -.4092E-02   D at   47  1
       a = 10.000      CL =  1.6778
      Cm = -0.0835     CD =  0.02233   =>   CDf =  0.00595    CDp =  0.01639

 Side 1  free  transition at x/c =  0.2069   46
 Side 2 forced transition at x/c =  1.0000   66

   4   rms: 0.1508E-05   max: -.1344E-04   D at   47  1
       a = 10.000      CL =  1.6778
      Cm = -0.0835     CD =  0.02233   =>   CDf =  0.00595    CDp =  0.01639
      9.000    5.9187   0.022335   0.015988   0.003294  -0.012694    0.2069     #

 Point added to stored polar  1
 Point written to save file  polar_output.txt                                
 Dump file unspecified or not available

.OPERva   c>  
 Polar accumulation disabled

.OPERv   c>  
 XFOIL   c>  