
 ===================================================
  XFOIL Version 6.99
  Copyright (C) 2000   Mark Drela, Harold Youngren

  This software comes with ABSOLUTELY NO WARRANTY,
    subject to the GNU General Public License.

  Caveat computor
 ===================================================

 File  xfoil.def  not found

   QUIT    Exit program

  .OPER    Direct operating point(s)
  .MDES    Complex mapping design routine
  .QDES    Surface speed design routine
  .GDES    Geometry design routine

   SAVE f  Write airfoil to labeled coordinate file
   PSAV f  Write airfoil to plain coordinate file
   ISAV f  Write airfoil to ISES coordinate file
   MSAV f  Write airfoil to MSES coordinate file
   REVE    Reverse written-airfoil node ordering
   DELI i  Change written-airfoil file delimiters

   LOAD f  Read buffer airfoil from coordinate file
   NACA i  Set NACA 4,5-digit airfoil and buffer airfoil
   INTE    Set buffer airfoil by interpolating two airfoils
   NORM    Buffer airfoil normalization toggle
   HALF    Halve the number of points in buffer airfoil
   XYCM rr Change CM reference location, currently  0.25000 0.00000

   BEND    Display structural properties of current airfoil

   PCOP    Set current-airfoil panel nodes directly from buffer airfoil points
   PANE    Set current-airfoil panel nodes ( 160 ) based on curvature
  .PPAR    Show/change paneling

  .PLOP    Plotting options

   WDEF f  Write  current-settings file
   RDEF f  Reread current-settings file
   NAME s  Specify new airfoil name
   NINC    Increment name version number

   Z       Zoom    | (available in all menus)
   U       Unzoom  | 

 XFOIL   c>  
 Labeled airfoil file.  Name:  MORPHED_PROFILE                                 

 Number of input coordinate points: 160
 Counterclockwise ordering
 Max thickness =     0.120280  at x =   0.296
 Max camber    =     0.053989  at x =   0.534

  LE  x,y  =   0.00001   0.00050  |   Chord =   1.00048
  TE  x,y  =   1.00000  -0.03062  |

 Current airfoil nodes set from buffer airfoil nodes ( 160 )

 XFOIL   c>  
 Blunt trailing edge.  Gap =  0.00252

 Paneling parameters used...
   Number of panel nodes       160
   Panel bunching parameter    1.000
   TE/LE panel density ratio   0.150
   Refined-area/LE panel density ratio    0.200
   Top    side refined area x/c limits  1.000 1.000
   Bottom side refined area x/c limits  1.000 1.000

 XFOIL   c>  
.OPERi   c>  
 M  =    0.0000
 Re =  0.6000E+06

.OPERv   c>  
.OPERv   c>  
 Polar  1 newly created for accumulation
 Airfoil archived with polar: MORPHED_PROFILE                                 

Enter  polar save filename  OR  <return> for no file   s>  
 New polar save file available

Enter  polar dump filename  OR  <return> for no file   s>  
 Polar dump file will NOT be written

 Polar accumulation enabled

.OPERva   c>   Calculating unit vorticity distributions ...
 Calculating wake trajectory ...
 Calculating source influence matrix ...

 Solving BL system ...

 Initializing BL ...
    side            1  ...
 MRCHUE: Convergence failed at  64  side 1    Res =  0.1871E+01
 MRCHUE: Inverse mode at  66     Hk =   3.800
 MRCHUE: Inverse mode at  67     Hk =   4.491
 MRCHUE: Inverse mode at  68     Hk =   5.188
 MRCHUE: Inverse mode at  69     Hk =   3.423
 MRCHUE: Inverse mode at  86     Hk =   2.500
    side            2  ...
 MRCHUE: Inverse mode at  48     Hk =   3.955
 MRCHUE: Inverse mode at  49     Hk =   4.594
 MRCHUE: Inverse mode at  50     Hk =   5.205
 MRCHUE: Inverse mode at  51     Hk =   5.778
 MRCHUE: Inverse mode at  52     Hk =   6.305
 MRCHUE: Inverse mode at  53     Hk =   6.778
 MRCHUE: Inverse mode at  54     Hk =   7.109
 MRCHUE: Inverse mode at  55     Hk =   4.961
 MRCHUE: Inverse mode at  56     Hk =   3.325

 Side 1  free  transition at x/c =  0.7315   69
 Side 2  free  transition at x/c =  0.6487   54

   1   rms: 0.1168E+00   max: -.7090E+00   D at   56  2   RLX: 0.705
       a =  0.000      CL =  0.9073
      Cm = -0.1662     CD =  0.00761   =>   CDf =  0.00515    CDp =  0.00246

 MRCHDU: Convergence failed at  56  side 2    Res =  0.8310E+01
 Side 1  free  transition at x/c =  0.7363   69
 Side 2  free  transition at x/c =  0.6690   56

   2   rms: 0.4907E-01   max: -.3078E+00   D at   56  2
       a =  0.000      CL =  0.8797
      Cm = -0.1594     CD =  0.00787   =>   CDf =  0.00487    CDp =  0.00300

 Side 1  free  transition at x/c =  0.7298   69
 Side 2  free  transition at x/c =  0.6683   56

   3   rms: 0.7629E-02   max: -.1045E+00   D at   69  1
       a =  0.000      CL =  0.8777
      Cm = -0.1590     CD =  0.00787   =>   CDf =  0.00494    CDp =  0.00293

 Side 1  free  transition at x/c =  0.7293   69
 Side 2  free  transition at x/c =  0.6686   56

   4   rms: 0.5654E-03   max: 0.8252E-02   D at   69  1
       a =  0.000      CL =  0.8778
      Cm = -0.1590     CD =  0.00788   =>   CDf =  0.00494    CDp =  0.00294

 Side 1  free  transition at x/c =  0.7293   69
 Side 2  free  transition at x/c =  0.6686   56

   5   rms: 0.3965E-05   max: 0.4964E-04   D at   56  2
       a =  0.000      CL =  0.8778
      Cm = -0.1590     CD =  0.00788   =>   CDf =  0.00494    CDp =  0.00294
      9.000    5.2860   0.007880   0.002455   0.002945   0.000490    0.7293     #

 Point added to stored polar  1
 Point written to save file  polar_output.txt                                
 Dump file unspecified or not available
 Calculating wake trajectory ...
 Calculating source influence matrix ...

 Solving BL system ...

 Side 1  free  transition at x/c =  0.7293   69
 Side 2  free  transition at x/c =  0.6686   56

   1   rms: 0.9634E-01   max: -.7115E+00   C at   56  2   RLX: 0.703
       a =  0.500      CL =  0.9171
      Cm = -0.1588     CD =  0.00778   =>   CDf =  0.00494    CDp =  0.00284

 Side 1  free  transition at x/c =  0.7214   68
 Side 2  free  transition at x/c =  0.6829   57

   2   rms: 0.4649E-01   max: -.5895E+00   C at   57  2   RLX: 0.848
       a =  0.500      CL =  0.9292
      Cm = -0.1585     CD =  0.00769   =>   CDf =  0.00492    CDp =  0.00277

 Side 1  free  transition at x/c =  0.7150   68
 Side 2  free  transition at x/c =  0.6947   58

   3   rms: 0.3029E-01   max: -.4732E+00   C at   58  2
       a =  0.500      CL =  0.9314
      Cm = -0.1584     CD =  0.00764   =>   CDf =  0.00489    CDp =  0.00276

 Side 1  free  transition at x/c =  0.7148   68
 Side 2  free  transition at x/c =  0.7094   59

   4   rms: 0.1536E-01   max: -.2899E+00   C at   59  2
       a =  0.500      CL =  0.9313
      Cm = -0.1583     CD =  0.00764   =>   CDf =  0.00477    CDp =  0.00287

 Side 1  free  transition at x/c =  0.7148   68
 Side 2  free  transition at x/c =  0.7127   59

   5   rms: 0.2282E-02   max: 0.4581E-01   C at   59  2
       a =  0.500      CL =  0.9313
      Cm = -0.1583     CD =  0.00764   =>   CDf =  0.00472    CDp =  0.00292

 Side 1  free  transition at x/c =  0.7148   68
 Side 2  free  transition at x/c =  0.7117   59

   6   rms: 0.2142E-04   max: 0.3987E-03   C at   59  2
       a =  0.500      CL =  0.9313
      Cm = -0.1583     CD =  0.00764   =>   CDf =  0.00473    CDp =  0.00292
      9.000    4.7207   0.007641   0.002521   0.002814   0.000293    0.7148     #

 Point added to stored polar  1
 Point written to save file  polar_output.txt                                
 Dump file unspecified or not available
 Calculating wake trajectory ...
 Calculating source influence matrix ...

 Solving BL system ...

 Side 1  free  transition at x/c =  0.7148   68
 Side 2  free  transition at x/c =  0.7117   59

   1   rms: 0.1882E+00   max: -.3442E+01   C at   59  2   RLX: 0.145
       a =  1.000      CL =  0.9388
      Cm = -0.1582     CD =  0.00758   =>   CDf =  0.00464    CDp =  0.00294

 Side 1  free  transition at x/c =  0.7124   69
 Side 2  free  transition at x/c =  0.7256   59

   2   rms: 0.2314E+00   max: -.4474E+01   C at   59  2   RLX: 0.112
       a =  1.000      CL =  0.9438
      Cm = -0.1581     CD =  0.00755   =>   CDf =  0.00470    CDp =  0.00285

 Side 1  free  transition at x/c =  0.7110   69
 Side 2  free  transition at x/c =  0.7421   59

   3   rms: 0.5113E+00   max: -.9108E+01   C at   59  2   RLX: 0.055
       a =  1.000      CL =  0.9458
      Cm = -0.1580     CD =  0.00751   =>   CDf =  0.00463    CDp =  0.00287

 Side 1  free  transition at x/c =  0.7104   68
 Side 2  free  transition at x/c =  0.7555   60

   4   rms: 0.7096E+00   max: -.1270E+02   C at   60  2   RLX: 0.039
       a =  1.000      CL =  0.9470
      Cm = -0.1580     CD =  0.00746   =>   CDf =  0.00459    CDp =  0.00287

 Side 1  free  transition at x/c =  0.7099   68
 Side 2  free  transition at x/c =  0.7757   61

   5   rms: 0.1389E+01   max: -.2345E+02   C at   61  2   RLX: 0.021
       a =  1.000      CL =  0.9472
      Cm = -0.1579     CD =  0.00740   =>   CDf =  0.00452    CDp =  0.00288

 Side 1  free  transition at x/c =  0.7096   68
 Side 2  free  transition at x/c =  0.7899   62

   6   rms: 0.1460E+01   max: -.2503E+02   C at   62  2   RLX: 0.020
       a =  1.000      CL =  0.9474
      Cm = -0.1577     CD =  0.00736   =>   CDf =  0.00448    CDp =  0.00289

 Side 1  free  transition at x/c =  0.7094   68
 Side 2  free  transition at x/c =  0.8070   63

   7   rms: 0.1721E+01   max: -.2904E+02   C at   63  2   RLX: 0.017
       a =  1.000      CL =  0.9473
      Cm = -0.1575     CD =  0.00732   =>   CDf =  0.00443    CDp =  0.00289

 Side 1  free  transition at x/c =  0.7092   68
 Side 2  free  transition at x/c =  0.8244   64

   8   rms: 0.1871E+01   max: -.3139E+02   C at   64  2   RLX: 0.016
       a =  1.000      CL =  0.9470
      Cm = -0.1573     CD =  0.00728   =>   CDf =  0.00438    CDp =  0.00290

 Side 1  free  transition at x/c =  0.7091   68
 Side 2  free  transition at x/c =  0.8426   65

   9   rms: 0.2034E+01   max: -.3383E+02   C at   65  2   RLX: 0.015
       a =  1.000      CL =  0.9467
      Cm = -0.1571     CD =  0.00724   =>   CDf =  0.00434    CDp =  0.00290

 Side 1  free  transition at x/c =  0.7089   68
 Side 2  free  transition at x/c =  0.8608   66

  10   rms: 0.2204E+01   max: -.3637E+02   C at   66  2   RLX: 0.014
       a =  1.000      CL =  0.9463
      Cm = -0.1569     CD =  0.00721   =>   CDf =  0.00430    CDp =  0.00291

 Side 1  free  transition at x/c =  0.7088   68
 Side 2  free  transition at x/c =  0.8795   67

  11   rms: 0.2537E+01   max: -.4140E+02   C at   67  2   RLX: 0.012
       a =  1.000      CL =  0.9462
      Cm = -0.1567     CD =  0.00718   =>   CDf =  0.00427    CDp =  0.00291

 Side 1  free  transition at x/c =  0.7087   68
 Side 2  free  transition at x/c =  0.8985   68

  12   rms: 0.3490E+01   max: -.5594E+02   C at   68  2   RLX: 0.009
       a =  1.000      CL =  0.9466
      Cm = -0.1567     CD =  0.00716   =>   CDf =  0.00424    CDp =  0.00292

 Side 1  free  transition at x/c =  0.7086   68
 Side 2  free  transition at x/c =  0.9175   70

  13   rms: 0.5741E+01   max: -.9848E+02   C at   70  2   RLX: 0.005
       a =  1.000      CL =  0.9479
      Cm = -0.1570     CD =  0.00714   =>   CDf =  0.00422    CDp =  0.00291

 Side 1  free  transition at x/c =  0.7085   68
 Side 2  free  transition at x/c =  0.9387   71

  14   rms: 0.3490E+02   max: -.5699E+03   C at   71  2   RLX: 0.001
       a =  1.000      CL =  0.9498
      Cm = -0.1574     CD =  0.00712   =>   CDf =  0.00421    CDp =  0.00291

 Side 1  free  transition at x/c =  0.7084   68
 Side 2  free  transition at x/c =  0.9606   72

  15   rms: 0.4004E+02   max: -.6411E+03   C at   72  2   RLX: 0.001
       a =  1.000      CL =  0.9513
      Cm = -0.1577     CD =  0.00711   =>   CDf =  0.00420    CDp =  0.00291

 Side 1  free  transition at x/c =  0.7083   68
 Side 2  free  transition at x/c =  0.9827   74

  16   rms: 0.8422E+01   max: -.1670E+03   C at   74  2   RLX: 0.003
       a =  1.000      CL =  0.9520
      Cm = -0.1578     CD =  0.00711   =>   CDf =  0.00420    CDp =  0.00291

 Side 1  free  transition at x/c =  0.7083   68
 Side 2 forced transition at x/c =  1.0000   75

  17   rms: 0.6372E-01   max: -.5411E+00   n at   74  2   RLX: 0.924
       a =  1.000      CL =  0.9811
      Cm = -0.1572     CD =  0.00710   =>   CDf =  0.00420    CDp =  0.00290

 Side 1  free  transition at x/c =  0.6935   67
 Side 2 forced transition at x/c =  1.0000   75

  18   rms: 0.1031E-01   max: -.1645E+00   D at   68  1
       a =  1.000      CL =  0.9837
      Cm = -0.1571     CD =  0.00713   =>   CDf =  0.00427    CDp =  0.00286

 Side 1  free  transition at x/c =  0.6948   67
 Side 2 forced transition at x/c =  1.0000   75

  19   rms: 0.7418E-03   max: 0.1238E-01   D at   68  1
       a =  1.000      CL =  0.9838
      Cm = -0.1572     CD =  0.00713   =>   CDf =  0.00424    CDp =  0.00289

 Side 1  free  transition at x/c =  0.6945   67
 Side 2 forced transition at x/c =  1.0000   75

  20   rms: 0.6014E-05   max: 0.3112E-04   D at   87  1
       a =  1.000      CL =  0.9838
      Cm = -0.1572     CD =  0.00713   =>   CDf =  0.00424    CDp =  0.00289
      9.000    3.9189   0.007132   0.000000   0.000000   0.000000    0.6945     #

 Point added to stored polar  1
 Point written to save file  polar_output.txt                                
 Dump file unspecified or not available
 Calculating wake trajectory ...
 Calculating source influence matrix ...

 Solving BL system ...

 Side 1  free  transition at x/c =  0.6945   67
 Side 2 forced transition at x/c =  1.0000   75

   1   rms: 0.8819E-01   max: -.5264E+00   C at   67  1   RLX: 0.950
       a =  1.500      CL =  1.0340
      Cm = -0.1566     CD =  0.00711   =>   CDf =  0.00418    CDp =  0.00293

 Side 1  free  transition at x/c =  0.6153   62
 Side 2 forced transition at x/c =  1.0000   74

   2   rms: 0.2502E-01   max: -.3799E+00   C at   62  1
       a =  1.500      CL =  1.0307
      Cm = -0.1550     CD =  0.00725   =>   CDf =  0.00455    CDp =  0.00269

 Side 1  free  transition at x/c =  0.6249   63
 Side 2 forced transition at x/c =  1.0000   74

   3   rms: 0.3026E-02   max: -.4312E-01   D at   62  1
       a =  1.500      CL =  1.0316
      Cm = -0.1552     CD =  0.00725   =>   CDf =  0.00444    CDp =  0.00281

 Side 1  free  transition at x/c =  0.6245   63
 Side 2 forced transition at x/c =  1.0000   74

   4   rms: 0.3906E-03   max: -.7007E-02   C at   63  1
       a =  1.500      CL =  1.0315
      Cm = -0.1552     CD =  0.00725   =>   CDf =  0.00443    CDp =  0.00281

 Side 1  free  transition at x/c =  0.6247   63
 Side 2 forced transition at x/c =  1.0000   74

   5   rms: 0.7323E-06   max: 0.9589E-05   C at   63  1
       a =  1.500      CL =  1.0315
      Cm = -0.1552     CD =  0.00725   =>   CDf =  0.00443    CDp =  0.00282
      9.000    3.6773   0.007247   0.000000   0.000000   0.000000    0.6247     #

 Point added to stored polar  1
 Point written to save file  polar_output.txt                                
 Dump file unspecified or not available
 Calculating wake trajectory ...
 Calculating source influence matrix ...

 Solving BL system ...

 Side 1  free  transition at x/c =  0.6247   63
 Side 2 forced transition at x/c =  1.0000   74

   1   rms: 0.2195E+00   max: 0.3935E+01   C at   63  1   RLX: 0.381
       a =  2.000      CL =  1.0439
      Cm = -0.1533     CD =  0.00757   =>   CDf =  0.00443    CDp =  0.00313

 Side 1  free  transition at x/c =  0.5976   61
 Side 2 forced transition at x/c =  1.0000   74

   2   rms: 0.7166E-01   max: 0.1032E+01   C at   61  1
       a =  2.000      CL =  1.0718
      Cm = -0.1521     CD =  0.00813   =>   CDf =  0.00466    CDp =  0.00348

 Side 1  free  transition at x/c =  0.5660   59
 Side 2 forced transition at x/c =  1.0000   74

   3   rms: 0.9007E-02   max: -.1582E+00   C at   59  1
       a =  2.000      CL =  1.0717
      Cm = -0.1521     CD =  0.00814   =>   CDf =  0.00487    CDp =  0.00326

 Side 1  free  transition at x/c =  0.5697   59
 Side 2 forced transition at x/c =  1.0000   74

   4   rms: 0.8130E-03   max: 0.1595E-01   C at   59  1
       a =  2.000      CL =  1.0717
      Cm = -0.1521     CD =  0.00813   =>   CDf =  0.00484    CDp =  0.00329

 Side 1  free  transition at x/c =  0.5692   59
 Side 2 forced transition at x/c =  1.0000   74

   5   rms: 0.4807E-05   max: -.8053E-04   C at   59  1
       a =  2.000      CL =  1.0717
      Cm = -0.1521     CD =  0.00813   =>   CDf =  0.00484    CDp =  0.00329
      9.000    3.8835   0.008134   0.000000   0.000000   0.000000    0.5692     #

 Point added to stored polar  1
 Point written to save file  polar_output.txt                                
 Dump file unspecified or not available
 Calculating wake trajectory ...
 Calculating source influence matrix ...

 Solving BL system ...

 Side 1  free  transition at x/c =  0.5692   59
 Side 2 forced transition at x/c =  1.0000   74

   1   rms: 0.8641E-01   max: 0.7072E+00   C at   59  1
       a =  2.500      CL =  1.1215
      Cm = -0.1509     CD =  0.00860   =>   CDf =  0.00475    CDp =  0.00384

 Side 1  free  transition at x/c =  0.5337   58
 Side 2 forced transition at x/c =  1.0000   73

   2   rms: 0.1247E-01   max: -.1808E+00   C at   58  1
       a =  2.500      CL =  1.1177
      Cm = -0.1502     CD =  0.00877   =>   CDf =  0.00506    CDp =  0.00371

 Side 1  free  transition at x/c =  0.5373   59
 Side 2 forced transition at x/c =  1.0000   73

   3   rms: 0.6982E-02   max: -.8443E-01   C at   59  1
       a =  2.500      CL =  1.1182
      Cm = -0.1503     CD =  0.00874   =>   CDf =  0.00504    CDp =  0.00369

 Side 1  free  transition at x/c =  0.5383   59
 Side 2 forced transition at x/c =  1.0000   73

   4   rms: 0.1024E-02   max: 0.1489E-01   C at   59  1
       a =  2.500      CL =  1.1183
      Cm = -0.1503     CD =  0.00874   =>   CDf =  0.00499    CDp =  0.00375

 Side 1  free  transition at x/c =  0.5379   59
 Side 2 forced transition at x/c =  1.0000   73

   5   rms: 0.1140E-04   max: -.1524E-03   D at   60  1
       a =  2.500      CL =  1.1183
      Cm = -0.1503     CD =  0.00874   =>   CDf =  0.00500    CDp =  0.00374
      9.000    4.0505   0.008743   0.002322   0.002412   0.000090    0.5379     #

 Point added to stored polar  1
 Point written to save file  polar_output.txt                                
 Dump file unspecified or not available
 Calculating wake trajectory ...
 Calculating source influence matrix ...

 Solving BL system ...

 Side 1  free  transition at x/c =  0.5379   59
 Side 2 forced transition at x/c =  1.0000   73

   1   rms: 0.8951E-01   max: 0.5914E+00   C at   59  1
       a =  3.000      CL =  1.1621
      Cm = -0.1480     CD =  0.00951   =>   CDf =  0.00491    CDp =  0.00460

 Side 1  free  transition at x/c =  0.5124   58
 Side 2 forced transition at x/c =  1.0000   72

   2   rms: 0.2294E-01   max: 0.2794E+00   D at    2  1
       a =  3.000      CL =  1.1657
      Cm = -0.1487     CD =  0.00927   =>   CDf =  0.00510    CDp =  0.00417

 Side 1  free  transition at x/c =  0.5141   58
 Side 2 forced transition at x/c =  1.0000   72

   3   rms: 0.2099E-02   max: 0.3378E-01   C at   58  1
       a =  3.000      CL =  1.1659
      Cm = -0.1487     CD =  0.00926   =>   CDf =  0.00508    CDp =  0.00418

 Side 1  free  transition at x/c =  0.5133   58
 Side 2 forced transition at x/c =  1.0000   72

   4   rms: 0.3029E-04   max: -.6354E-03   D at   59  1
       a =  3.000      CL =  1.1659
      Cm = -0.1487     CD =  0.00926   =>   CDf =  0.00508    CDp =  0.00418
      9.000    4.1773   0.009259   0.002324   0.002465   0.000141    0.5133     #

 Point added to stored polar  1
 Point written to save file  polar_output.txt                                
 Dump file unspecified or not available
 Calculating wake trajectory ...
 Calculating source influence matrix ...

 Solving BL system ...

 Side 1  free  transition at x/c =  0.5133   58
 Side 2 forced transition at x/c =  1.0000   72

   1   rms: 0.8263E-01   max: 0.4481E+00   C at   58  1
       a =  3.500      CL =  1.2139
      Cm = -0.1473     CD =  0.00975   =>   CDf =  0.00509    CDp =  0.00466

 Side 1  free  transition at x/c =  0.4853   56
 Side 2 forced transition at x/c =  1.0000   72

   2   rms: 0.1229E-01   max: 0.2254E+00   D at   57  1
       a =  3.500      CL =  1.2103
      Cm = -0.1466     CD =  0.00988   =>   CDf =  0.00525    CDp =  0.00463

 Side 1  free  transition at x/c =  0.4893   57
 Side 2 forced transition at x/c =  1.0000   72

   3   rms: 0.4998E-02   max: -.6589E-01   D at   56  1
       a =  3.500      CL =  1.2117
      Cm = -0.1469     CD =  0.00981   =>   CDf =  0.00521    CDp =  0.00460

 Side 1  free  transition at x/c =  0.4895   57
 Side 2 forced transition at x/c =  1.0000   72

   4   rms: 0.3635E-03   max: 0.5020E-02   C at   57  1
       a =  3.500      CL =  1.2118
      Cm = -0.1469     CD =  0.00981   =>   CDf =  0.00518    CDp =  0.00463

 Side 1  free  transition at x/c =  0.4894   57
 Side 2 forced transition at x/c =  1.0000   72

   5   rms: 0.3670E-05   max: -.1801E-04   C at   72  2
       a =  3.500      CL =  1.2118
      Cm = -0.1469     CD =  0.00981   =>   CDf =  0.00518    CDp =  0.00463
      9.000    4.1961   0.009814   0.002358   0.002489   0.000131    0.4894     #

 Point added to stored polar  1
 Point written to save file  polar_output.txt                                
 Dump file unspecified or not available
 Calculating wake trajectory ...
 Calculating source influence matrix ...

 Solving BL system ...

 Side 1  free  transition at x/c =  0.4894   57
 Side 2 forced transition at x/c =  1.0000   72

   1   rms: 0.8606E-01   max: -.4683E+00   D at   57  1
       a =  4.000      CL =  1.2537
      Cm = -0.1443     CD =  0.01057   =>   CDf =  0.00508    CDp =  0.00549

 Side 1  free  transition at x/c =  0.4606   56
 Side 2 forced transition at x/c =  1.0000   71

   2   rms: 0.1949E-01   max: 0.2878E+00   D at   57  1
       a =  4.000      CL =  1.2561
      Cm = -0.1447     CD =  0.01038   =>   CDf =  0.00530    CDp =  0.00508

 Side 1  free  transition at x/c =  0.4641   56
 Side 2 forced transition at x/c =  1.0000   71

   3   rms: 0.2315E-02   max: -.4031E-01   D at   57  1
       a =  4.000      CL =  1.2565
      Cm = -0.1448     CD =  0.01036   =>   CDf =  0.00525    CDp =  0.00512

 Side 1  free  transition at x/c =  0.4631   56
 Side 2 forced transition at x/c =  1.0000   71

   4   rms: 0.4819E-04   max: -.1015E-02   D at   57  1
       a =  4.000      CL =  1.2565
      Cm = -0.1448     CD =  0.01037   =>   CDf =  0.00526    CDp =  0.00511
      9.000    4.0695   0.010366   0.002419   0.002486   0.000066    0.4631     #

 Point added to stored polar  1
 Point written to save file  polar_output.txt                                
 Dump file unspecified or not available
 Calculating wake trajectory ...
 Calculating source influence matrix ...

 Solving BL system ...

 Side 1  free  transition at x/c =  0.4631   56
 Side 2 forced transition at x/c =  1.0000   71

   1   rms: 0.8136E-01   max: 0.4070E+00   C at   56  1
       a =  4.500      CL =  1.3016
      Cm = -0.1428     CD =  0.01089   =>   CDf =  0.00526    CDp =  0.00564

 Side 1  free  transition at x/c =  0.4358   54
 Side 2 forced transition at x/c =  1.0000   71

   2   rms: 0.1197E-01   max: 0.2117E+00   D at   55  1
       a =  4.500      CL =  1.2979
      Cm = -0.1421     CD =  0.01102   =>   CDf =  0.00538    CDp =  0.00564

 Side 1  free  transition at x/c =  0.4386   55
 Side 2 forced transition at x/c =  1.0000   71

   3   rms: 0.3269E-02   max: -.4213E-01   D at   54  1
       a =  4.500      CL =  1.2991
      Cm = -0.1423     CD =  0.01097   =>   CDf =  0.00536    CDp =  0.00561

 Side 1  free  transition at x/c =  0.4386   55
 Side 2 forced transition at x/c =  1.0000   71

   4   rms: 0.1894E-03   max: 0.2533E-02   C at   55  1
       a =  4.500      CL =  1.2991
      Cm = -0.1424     CD =  0.01097   =>   CDf =  0.00534    CDp =  0.00563

 Side 1  free  transition at x/c =  0.4386   55
 Side 2 forced transition at x/c =  1.0000   71

   5   rms: 0.2654E-05   max: -.1381E-04   C at   71  2
       a =  4.500      CL =  1.2991
      Cm = -0.1424     CD =  0.01097   =>   CDf =  0.00534    CDp =  0.00563
      9.000    3.8844   0.010967   0.000000   0.000000   0.000000    0.4386     #

 Point added to stored polar  1
 Point written to save file  polar_output.txt                                
 Dump file unspecified or not available
 Calculating wake trajectory ...
 Calculating source influence matrix ...

 Solving BL system ...

 Side 1  free  transition at x/c =  0.4386   55
 Side 2 forced transition at x/c =  1.0000   71

   1   rms: 0.8292E-01   max: -.4628E+00   D at   55  1
       a =  5.000      CL =  1.3371
      Cm = -0.1391     CD =  0.01179   =>   CDf =  0.00522    CDp =  0.00657

 Side 1  free  transition at x/c =  0.4132   54
 Side 2 forced transition at x/c =  1.0000   70

   2   rms: 0.1716E-01   max: 0.2512E+00   D at   55  1
       a =  5.000      CL =  1.3402
      Cm = -0.1396     CD =  0.01155   =>   CDf =  0.00538    CDp =  0.00617

 Side 1  free  transition at x/c =  0.4152   54
 Side 2 forced transition at x/c =  1.0000   70

   3   rms: 0.1945E-02   max: 0.3202E-01   C at   54  1
       a =  5.000      CL =  1.3406
      Cm = -0.1397     CD =  0.01153   =>   CDf =  0.00536    CDp =  0.00618

 Side 1  free  transition at x/c =  0.4143   54
 Side 2 forced transition at x/c =  1.0000   70

   4   rms: 0.2886E-04   max: -.3953E-03   D at   55  1
       a =  5.000      CL =  1.3406
      Cm = -0.1397     CD =  0.01153   =>   CDf =  0.00536    CDp =  0.00617
      9.000    3.6575   0.011534   0.000000   0.000000   0.000000    0.4143     #

 Point added to stored polar  1
 Point written to save file  polar_output.txt                                
 Dump file unspecified or not available
 Calculating wake trajectory ...
 Calculating source influence matrix ...

 Solving BL system ...

 Side 1  free  transition at x/c =  0.4143   54
 Side 2 forced transition at x/c =  1.0000   70

   1   rms: 0.7629E-01   max: 0.3911E+00   C at   54  1
       a =  5.500      CL =  1.3805
      Cm = -0.1367     CD =  0.01206   =>   CDf =  0.00523    CDp =  0.00683

 Side 1  free  transition at x/c =  0.3809   53
 Side 2 forced transition at x/c =  1.0000   69

   2   rms: 0.2008E-01   max: -.2515E+00   T at    2  1
       a =  5.500      CL =  1.3765
      Cm = -0.1360     CD =  0.01223   =>   CDf =  0.00561    CDp =  0.00662

 Side 1  free  transition at x/c =  0.3868   52
 Side 2 forced transition at x/c =  1.0000   70

   3   rms: 0.1175E-02   max: -.1477E-01   D at   53  1
       a =  5.500      CL =  1.3766
      Cm = -0.1360     CD =  0.01224   =>   CDf =  0.00543    CDp =  0.00680

 Side 1  free  transition at x/c =  0.3862   52
 Side 2 forced transition at x/c =  1.0000   70

   4   rms: 0.5331E-03   max: 0.6288E-02   D at    4  2
       a =  5.500      CL =  1.3766
      Cm = -0.1360     CD =  0.01224   =>   CDf =  0.00543    CDp =  0.00680

 Side 1  free  transition at x/c =  0.3862   52
 Side 2 forced transition at x/c =  1.0000   70

   5   rms: 0.1317E-06   max: -.1425E-05   D at    4  2
       a =  5.500      CL =  1.3766
      Cm = -0.1360     CD =  0.01224   =>   CDf =  0.00543    CDp =  0.00680
      9.000    3.5681   0.012237   0.000000   0.000000   0.000000    0.3862     #

 Point added to stored polar  1
 Point written to save file  polar_output.txt                                
 Dump file unspecified or not available
 Calculating wake trajectory ...
 Calculating source influence matrix ...

 Solving BL system ...

 Side 1  free  transition at x/c =  0.3862   52
 Side 2 forced transition at x/c =  1.0000   70

   1   rms: 0.7716E-01   max: 0.3388E+00   C at   52  1
       a =  6.000      CL =  1.4199
      Cm = -0.1338     CD =  0.01274   =>   CDf =  0.00529    CDp =  0.00745

 Side 1  free  transition at x/c =  0.3388   50
 Side 2 forced transition at x/c =  1.0000   69

   2   rms: 0.2075E-01   max: -.2318E+00   C at   50  1
       a =  6.000      CL =  1.4067
      Cm = -0.1316     CD =  0.01327   =>   CDf =  0.00565    CDp =  0.00761

 Side 1  free  transition at x/c =  0.3525   51
 Side 2 forced transition at x/c =  1.0000   69

   3   rms: 0.8890E-02   max: -.1158E+00   C at   51  1
       a =  6.000      CL =  1.4110
      Cm = -0.1323     CD =  0.01309   =>   CDf =  0.00554    CDp =  0.00755

 Side 1  free  transition at x/c =  0.3488   51
 Side 2 forced transition at x/c =  1.0000   69

   4   rms: 0.1316E-02   max: -.2212E-01   C at   51  1
       a =  6.000      CL =  1.4103
      Cm = -0.1322     CD =  0.01313   =>   CDf =  0.00554    CDp =  0.00759

 Side 1  free  transition at x/c =  0.3494   51
 Side 2 forced transition at x/c =  1.0000   69

   5   rms: 0.1090E-04   max: -.8165E-04   D at   52  1
       a =  6.000      CL =  1.4103
      Cm = -0.1322     CD =  0.01313   =>   CDf =  0.00554    CDp =  0.00759
      9.000    3.9714   0.013128   0.000000   0.000000   0.000000    0.3494     #

 Point added to stored polar  1
 Point written to save file  polar_output.txt                                
 Dump file unspecified or not available
 Calculating wake trajectory ...
 Calculating source influence matrix ...

 Solving BL system ...

 Side 1  free  transition at x/c =  0.3494   51
 Side 2 forced transition at x/c =  1.0000   69

   1   rms: 0.9020E-01   max: 0.1089E+01   C at   51  1
       a =  6.500      CL =  1.4439
      Cm = -0.1285     CD =  0.01413   =>   CDf =  0.00538    CDp =  0.00875

 Side 1  free  transition at x/c =  0.2928   48
 Side 2 forced transition at x/c =  1.0000   68

   2   rms: 0.2021E-01   max: -.2573E+00   C at   48  1
       a =  6.500      CL =  1.4350
      Cm = -0.1271     CD =  0.01455   =>   CDf =  0.00585    CDp =  0.00871

 Side 1  free  transition at x/c =  0.3061   49
 Side 2 forced transition at x/c =  1.0000   68

   3   rms: 0.7291E-02   max: -.9347E-01   C at   49  1
       a =  6.500      CL =  1.4387
      Cm = -0.1277     CD =  0.01437   =>   CDf =  0.00573    CDp =  0.00863

 Side 1  free  transition at x/c =  0.3019   49
 Side 2 forced transition at x/c =  1.0000   68

   4   rms: 0.1655E-02   max: -.3190E-01   C at   49  1
       a =  6.500      CL =  1.4380
      Cm = -0.1276     CD =  0.01441   =>   CDf =  0.00574    CDp =  0.00867

 Side 1  free  transition at x/c =  0.3027   49
 Side 2 forced transition at x/c =  1.0000   68

   5   rms: 0.1709E-04   max: -.8574E-04   D at   91  1
       a =  6.500      CL =  1.4380
      Cm = -0.1276     CD =  0.01441   =>   CDf =  0.00573    CDp =  0.00867
      9.000    4.4515   0.014407   0.012141   0.000000  -0.012141    0.3027     #

 Point added to stored polar  1
 Point written to save file  polar_output.txt                                
 Dump file unspecified or not available
 Calculating wake trajectory ...
 Calculating source influence matrix ...

 Solving BL system ...

 Side 1  free  transition at x/c =  0.3027   49
 Side 2 forced transition at x/c =  1.0000   68

   1   rms: 0.1061E+00   max: 0.1652E+01   C at   49  1   RLX: 0.908
       a =  7.000      CL =  1.4639
      Cm = -0.1237     CD =  0.01567   =>   CDf =  0.00573    CDp =  0.00993

 Side 1  free  transition at x/c =  0.2422   45
 Side 2 forced transition at x/c =  1.0000   68

   2   rms: 0.1727E-01   max: -.2116E+00   C at   45  1
       a =  7.000      CL =  1.4599
      Cm = -0.1225     CD =  0.01614   =>   CDf =  0.00609    CDp =  0.01006

 Side 1  free  transition at x/c =  0.2461   45
 Side 2 forced transition at x/c =  1.0000   68

   3   rms: 0.8085E-03   max: 0.1426E-01   C at   45  1
       a =  7.000      CL =  1.4597
      Cm = -0.1224     CD =  0.01615   =>   CDf =  0.00603    CDp =  0.01012

 Side 1  free  transition at x/c =  0.2459   45
 Side 2 forced transition at x/c =  1.0000   68

   4   rms: 0.7405E-05   max: -.4809E-04   C at   45  1
       a =  7.000      CL =  1.4597
      Cm = -0.1224     CD =  0.01615   =>   CDf =  0.00603    CDp =  0.01012
      9.000    4.9768   0.016152   0.012759   0.000000  -0.012759    0.2459     #

 Point added to stored polar  1
 Point written to save file  polar_output.txt                                
 Dump file unspecified or not available
 Calculating wake trajectory ...
 Calculating source influence matrix ...

 Solving BL system ...

 Side 1  free  transition at x/c =  0.2459   45
 Side 2 forced transition at x/c =  1.0000   68

   1   rms: 0.1146E+00   max: 0.2036E+01   C at   45  1   RLX: 0.737
       a =  7.500      CL =  1.4808
      Cm = -0.1195     CD =  0.01728   =>   CDf =  0.00603    CDp =  0.01124

 Side 1  free  transition at x/c =  0.1889   42
 Side 2 forced transition at x/c =  1.0000   68

   2   rms: 0.2279E-01   max: 0.1089E+00   D at   88  1
       a =  7.500      CL =  1.4774
      Cm = -0.1170     CD =  0.01833   =>   CDf =  0.00639    CDp =  0.01194

 Side 1  free  transition at x/c =  0.1834   41
 Side 2 forced transition at x/c =  1.0000   68

   3   rms: 0.1170E-02   max: 0.1753E-01   D at   75  2
       a =  7.500      CL =  1.4770
      Cm = -0.1170     CD =  0.01832   =>   CDf =  0.00638    CDp =  0.01193

 Side 1  free  transition at x/c =  0.1836   41
 Side 2 forced transition at x/c =  1.0000   68

   4   rms: 0.2513E-04   max: -.3911E-03   C at   41  1
       a =  7.500      CL =  1.4770
      Cm = -0.1170     CD =  0.01832   =>   CDf =  0.00638    CDp =  0.01194
      9.000    5.5156   0.018316   0.013516   0.000000  -0.013516    0.1836     #

 Point added to stored polar  1
 Point written to save file  polar_output.txt                                
 Dump file unspecified or not available
 Calculating wake trajectory ...
 Calculating source influence matrix ...

 Solving BL system ...

 Side 1  free  transition at x/c =  0.1836   41
 Side 2 forced transition at x/c =  1.0000   68

   1   rms: 0.1368E+00   max: 0.2700E+01   C at   41  1   RLX: 0.555
       a =  8.000      CL =  1.4889
      Cm = -0.1144     CD =  0.01949   =>   CDf =  0.00620    CDp =  0.01328

 Side 1  free  transition at x/c =  0.1458   40
 Side 2 forced transition at x/c =  1.0000   67

   2   rms: 0.4708E-01   max: 0.5583E+00   C at   40  1
       a =  8.000      CL =  1.4918
      Cm = -0.1116     CD =  0.02086   =>   CDf =  0.00662    CDp =  0.01424

 Side 1  free  transition at x/c =  0.1279   38
 Side 2 forced transition at x/c =  1.0000   67

   3   rms: 0.6429E-02   max: 0.9108E-01   D at   39  1
       a =  8.000      CL =  1.4917
      Cm = -0.1116     CD =  0.02078   =>   CDf =  0.00672    CDp =  0.01407

 Side 1  free  transition at x/c =  0.1287   38
 Side 2 forced transition at x/c =  1.0000   67

   4   rms: 0.4817E-03   max: 0.1122E-01   C at   38  1
       a =  8.000      CL =  1.4919
      Cm = -0.1116     CD =  0.02077   =>   CDf =  0.00670    CDp =  0.01407

 Side 1  free  transition at x/c =  0.1285   38
 Side 2 forced transition at x/c =  1.0000   67

   5   rms: 0.2930E-05   max: -.1838E-04   C at   38  1
       a =  8.000      CL =  1.4918
      Cm = -0.1116     CD =  0.02077   =>   CDf =  0.00671    CDp =  0.01407
      9.000    6.0586   0.020773   0.014305   0.000000  -0.014305    0.1285     #

 Point added to stored polar  1
 Point written to save file  polar_output.txt                                
 Dump file unspecified or not available
 Calculating wake trajectory ...
 Calculating source influence matrix ...

 Solving BL system ...

 Side 1  free  transition at x/c =  0.1285   38
 Side 2 forced transition at x/c =  1.0000   67

   1   rms: 0.1189E+00   max: 0.2273E+01   C at   38  1   RLX: 0.660
       a =  8.500      CL =  1.5075
      Cm = -0.1089     CD =  0.02215   =>   CDf =  0.00671    CDp =  0.01544

 Side 1  free  transition at x/c =  0.0983   36
 Side 2 forced transition at x/c =  1.0000   67

   2   rms: 0.2853E-01   max: 0.2407E+00   C at   36  1
       a =  8.500      CL =  1.5102
      Cm = -0.1070     CD =  0.02317   =>   CDf =  0.00690    CDp =  0.01628

 Side 1  free  transition at x/c =  0.0886   35
 Side 2 forced transition at x/c =  1.0000   67

   3   rms: 0.3799E-02   max: -.6742E-01   C at   35  1
       a =  8.500      CL =  1.5079
      Cm = -0.1067     CD =  0.02327   =>   CDf =  0.00694    CDp =  0.01633

 Side 1  free  transition at x/c =  0.0894   35
 Side 2 forced transition at x/c =  1.0000   67

   4   rms: 0.8288E-04   max: 0.1112E-02   D at   76  2
       a =  8.500      CL =  1.5079
      Cm = -0.1067     CD =  0.02327   =>   CDf =  0.00693    CDp =  0.01634
      9.000    6.5858   0.023269   0.014970   0.000000  -0.014970    0.0894     #

 Point added to stored polar  1
 Point written to save file  polar_output.txt                                
 Dump file unspecified or not available
 Calculating wake trajectory ...
 Calculating source influence matrix ...

 Solving BL system ...

 Side 1  free  transition at x/c =  0.0894   35
 Side 2 forced transition at x/c =  1.0000   67

   1   rms: 0.9057E-01   max: 0.1328E+01   C at   35  1
       a =  9.000      CL =  1.5328
      Cm = -0.1031     CD =  0.02536   =>   CDf =  0.00672    CDp =  0.01864

 Side 1  free  transition at x/c =  0.0661   34
 Side 2 forced transition at x/c =  1.0000   66

   2   rms: 0.1385E-01   max: -.1704E+00   C at   34  1
       a =  9.000      CL =  1.5262
      Cm = -0.1024     CD =  0.02572   =>   CDf =  0.00706    CDp =  0.01866

 Side 1  free  transition at x/c =  0.0663   34
 Side 2 forced transition at x/c =  1.0000   66

   3   rms: 0.1196E-02   max: 0.2126E-01   C at   34  1
       a =  9.000      CL =  1.5260
      Cm = -0.1024     CD =  0.02571   =>   CDf =  0.00702    CDp =  0.01869

 Side 1  free  transition at x/c =  0.0661   34
 Side 2 forced transition at x/c =  1.0000   66

   4   rms: 0.1714E-04   max: -.1514E-03   C at   34  1
       a =  9.000      CL =  1.5260
      Cm = -0.1024     CD =  0.02571   =>   CDf =  0.00703    CDp =  0.01869
      9.000    7.0952   0.025711   0.015487   0.001585  -0.013902    0.0661     #

 Point added to stored polar  1
 Point written to save file  polar_output.txt                                
 Dump file unspecified or not available
 Calculating wake trajectory ...
 Calculating source influence matrix ...

 Solving BL system ...

 Side 1  free  transition at x/c =  0.0661   34
 Side 2 forced transition at x/c =  1.0000   66

   1   rms: 0.7694E-01   max: 0.6271E+00   C at   34  1   RLX: 0.985
       a =  9.500      CL =  1.5504
      Cm = -0.0991     CD =  0.02789   =>   CDf =  0.00703    CDp =  0.02086

 Side 1  free  transition at x/c =  0.0523   33
 Side 2 forced transition at x/c =  1.0000   66

   2   rms: 0.1742E-01   max: -.2950E+00   D at   33  1
       a =  9.500      CL =  1.5460
      Cm = -0.0986     CD =  0.02809   =>   CDf =  0.00703    CDp =  0.02106

 Side 1  free  transition at x/c =  0.0527   33
 Side 2 forced transition at x/c =  1.0000   66

   3   rms: 0.2450E-02   max: 0.2697E-01   C at   33  1
       a =  9.500      CL =  1.5447
      Cm = -0.0984     CD =  0.02820   =>   CDf =  0.00704    CDp =  0.02116

 Side 1  free  transition at x/c =  0.0524   33
 Side 2 forced transition at x/c =  1.0000   66

   4   rms: 0.6406E-04   max: 0.3291E-03   D at   76  2
       a =  9.500      CL =  1.5446
      Cm = -0.0984     CD =  0.02820   =>   CDf =  0.00705    CDp =  0.02115
      9.000    7.5985   0.028196   0.015904   0.001657  -0.014247    0.0524     #

 Point added to stored polar  1
 Point written to save file  polar_output.txt                                
 Dump file unspecified or not available
 Calculating wake trajectory ...
 Calculating source influence matrix ...

 Solving BL system ...

 Side 1  free  transition at x/c =  0.0524   33
 Side 2 forced transition at x/c =  1.0000   66

   1   rms: 0.8059E-01   max: -.5554E+00   D at   33  1   RLX: 0.900
       a = 10.000      CL =  1.5605
      Cm = -0.0949     CD =  0.03079   =>   CDf =  0.00679    CDp =  0.02400

 Side 1  free  transition at x/c =  0.0451   33
 Side 2 forced transition at x/c =  1.0000   65

   2   rms: 0.4920E-01   max: 0.7554E+00   D at    2  1
       a = 10.000      CL =  1.5656
      Cm = -0.0949     CD =  0.03056   =>   CDf =  0.00697    CDp =  0.02360

 Side 1  free  transition at x/c =  0.0440   33
 Side 2 forced transition at x/c =  1.0000   65

   3   rms: 0.4745E-02   max: -.1757E-01   D at   34  1
       a = 10.000      CL =  1.5623
      Cm = -0.0946     CD =  0.03085   =>   CDf =  0.00702    CDp =  0.02383

 Side 1  free  transition at x/c =  0.0438   33
 Side 2 forced transition at x/c =  1.0000   65

   4   rms: 0.1621E-03   max: 0.1157E-02   D at   83  1
       a = 10.000      CL =  1.5621
      Cm = -0.0946     CD =  0.03085   =>   CDf =  0.00702    CDp =  0.02383

 Side 1  free  transition at x/c =  0.0438   33
 Side 2 forced transition at x/c =  1.0000   65

   5   rms: 0.4505E-05   max: -.3752E-04   C at   65  2
       a = 10.000      CL =  1.5621
      Cm = -0.0946     CD =  0.03085   =>   CDf =  0.00702    CDp =  0.02383
      9.000    8.1118   0.030848   0.016268   0.001715  -0.014553    0.0438     #

 Point added to stored polar  1
 Point written to save file  polar_output.txt                                
 Dump file unspecified or not available

.OPERva   c>  
 Polar accumulation disabled

.OPERv   c>  
 XFOIL   c>  