
 ===================================================
  XFOIL Version 6.99
  Copyright (C) 2000   Mark Drela, Harold Youngren

  This software comes with ABSOLUTELY NO WARRANTY,
    subject to the GNU General Public License.

  Caveat computor
 ===================================================

 File  xfoil.def  not found

   QUIT    Exit program

  .OPER    Direct operating point(s)
  .MDES    Complex mapping design routine
  .QDES    Surface speed design routine
  .GDES    Geometry design routine

   SAVE f  Write airfoil to labeled coordinate file
   PSAV f  Write airfoil to plain coordinate file
   ISAV f  Write airfoil to ISES coordinate file
   MSAV f  Write airfoil to MSES coordinate file
   REVE    Reverse written-airfoil node ordering
   DELI i  Change written-airfoil file delimiters

   LOAD f  Read buffer airfoil from coordinate file
   NACA i  Set NACA 4,5-digit airfoil and buffer airfoil
   INTE    Set buffer airfoil by interpolating two airfoils
   NORM    Buffer airfoil normalization toggle
   HALF    Halve the number of points in buffer airfoil
   XYCM rr Change CM reference location, currently  0.25000 0.00000

   BEND    Display structural properties of current airfoil

   PCOP    Set current-airfoil panel nodes directly from buffer airfoil points
   PANE    Set current-airfoil panel nodes ( 160 ) based on curvature
  .PPAR    Show/change paneling

  .PLOP    Plotting options

   WDEF f  Write  current-settings file
   RDEF f  Reread current-settings file
   NAME s  Specify new airfoil name
   NINC    Increment name version number

   Z       Zoom    | (available in all menus)
   U       Unzoom  | 

 XFOIL   c>  
 Labeled airfoil file.  Name:  MORPHED_PROFILE                                 

 Number of input coordinate points: 160
 Counterclockwise ordering
 Max thickness =     0.120060  at x =   0.300
 Max camber    =     0.053068  at x =   0.514

  LE  x,y  =   0.00001   0.00063  |   Chord =   1.00075
  TE  x,y  =   1.00000  -0.03834  |

 Current airfoil nodes set from buffer airfoil nodes ( 160 )

 XFOIL   c>  
 Blunt trailing edge.  Gap =  0.00252

 Paneling parameters used...
   Number of panel nodes       160
   Panel bunching parameter    1.000
   TE/LE panel density ratio   0.150
   Refined-area/LE panel density ratio    0.200
   Top    side refined area x/c limits  1.000 1.000
   Bottom side refined area x/c limits  1.000 1.000

 XFOIL   c>  
.OPERi   c>  
 M  =    0.0000
 Re =  0.6000E+06

.OPERv   c>  
.OPERv   c>  
 Polar  1 newly created for accumulation
 Airfoil archived with polar: MORPHED_PROFILE                                 

Enter  polar save filename  OR  <return> for no file   s>  
 New polar save file available

Enter  polar dump filename  OR  <return> for no file   s>  
 Polar dump file will NOT be written

 Polar accumulation enabled

.OPERva   c>   Calculating unit vorticity distributions ...
 Calculating wake trajectory ...
 Calculating source influence matrix ...

 Solving BL system ...

 Initializing BL ...
    side            1  ...
 MRCHUE: Inverse mode at  35     Hk =   4.324
 MRCHUE: Inverse mode at  36     Hk =   5.752
 MRCHUE: Inverse mode at  37     Hk =   7.160
 MRCHUE: Inverse mode at  38     Hk =   8.547
 MRCHUE: Inverse mode at  39     Hk =   9.916
 MRCHUE: Inverse mode at  40     Hk =   3.175
 MRCHUE: Inverse mode at  83     Hk =   2.500
 MRCHUE: Inverse mode at  84     Hk =   2.500
 MRCHUE: Inverse mode at  85     Hk =   2.500
 MRCHUE: Convergence failed at  86  side 1    Res =  0.4717E+01
    side            2  ...
 MRCHUE: Inverse mode at  49     Hk =   4.463
 MRCHUE: Inverse mode at  50     Hk =   5.125
 MRCHUE: Inverse mode at  51     Hk =   5.743
 MRCHUE: Inverse mode at  52     Hk =   6.311
 MRCHUE: Inverse mode at  53     Hk =   6.818
 MRCHUE: Inverse mode at  54     Hk =   7.269
 MRCHUE: Inverse mode at  55     Hk =   6.756
 MRCHUE: Inverse mode at  56     Hk =   4.378
 MRCHUE: Inverse mode at  57     Hk =   2.692

 MRCHDU: Convergence failed at  86  side 1    Res =  0.4070E+01
 Side 1  free  transition at x/c =  0.2612   40
 Side 2  free  transition at x/c =  0.6550   55

   1   rms: 0.3079E+00   max: -.1228E+01   T at   40  1   RLX: 0.407
       a =  0.000      CL =  0.9305
      Cm = -0.1393     CD =  0.00796   =>   CDf =  0.00790    CDp =  0.00006

 Side 1  free  transition at x/c =  0.2804   40
 Side 2  free  transition at x/c =  0.6558   56

   2   rms: 0.1207E+00   max: -.6098E+00   D at   58  2   RLX: 0.820
       a =  0.000      CL =  0.8735
      Cm = -0.1281     CD =  0.01027   =>   CDf =  0.00750    CDp =  0.00276

 Side 1  free  transition at x/c =  0.3018   41
 Side 2  free  transition at x/c =  0.6568   56

   3   rms: 0.2541E-01   max: -.2617E+00   D at   58  2
       a =  0.000      CL =  0.8571
      Cm = -0.1254     CD =  0.01130   =>   CDf =  0.00720    CDp =  0.00410

 Side 1  free  transition at x/c =  0.3029   41
 Side 2  free  transition at x/c =  0.6520   56

   4   rms: 0.2310E-02   max: -.3743E-01   D at   58  2
       a =  0.000      CL =  0.8568
      Cm = -0.1253     CD =  0.01134   =>   CDf =  0.00716    CDp =  0.00418

 Side 1  free  transition at x/c =  0.3027   41
 Side 2  free  transition at x/c =  0.6518   56

   5   rms: 0.2114E-04   max: -.4194E-03   D at   58  2
       a =  0.000      CL =  0.8568
      Cm = -0.1253     CD =  0.01134   =>   CDf =  0.00716    CDp =  0.00418
      9.000    4.6128   0.011340   0.001460   0.001742   0.000282    0.3027     #

 Point added to stored polar  1
 Point written to save file  polar_output.txt                                
 Dump file unspecified or not available
 Calculating wake trajectory ...
 Calculating source influence matrix ...

 Solving BL system ...

 Side 1  free  transition at x/c =  0.3027   41
 Side 2  free  transition at x/c =  0.6518   56

   1   rms: 0.9670E-01   max: -.6373E+00   T at   56  2   RLX: 0.785
       a =  0.500      CL =  0.8949
      Cm = -0.1243     CD =  0.01159   =>   CDf =  0.00717    CDp =  0.00442

 Side 1  free  transition at x/c =  0.2912   40
 Side 2  free  transition at x/c =  0.6668   57

   2   rms: 0.3339E-01   max: -.3357E+00   C at   57  2
       a =  0.500      CL =  0.9055
      Cm = -0.1240     CD =  0.01157   =>   CDf =  0.00725    CDp =  0.00432

 Side 1  free  transition at x/c =  0.2892   40
 Side 2  free  transition at x/c =  0.6755   58

   3   rms: 0.2148E-01   max: -.2527E+00   C at   58  2
       a =  0.500      CL =  0.9054
      Cm = -0.1240     CD =  0.01159   =>   CDf =  0.00725    CDp =  0.00434

 Side 1  free  transition at x/c =  0.2892   40
 Side 2  free  transition at x/c =  0.6816   58

   4   rms: 0.6696E-02   max: 0.1265E+00   C at   58  2
       a =  0.500      CL =  0.9054
      Cm = -0.1240     CD =  0.01161   =>   CDf =  0.00714    CDp =  0.00446

 Side 1  free  transition at x/c =  0.2892   40
 Side 2  free  transition at x/c =  0.6794   58

   5   rms: 0.2000E-03   max: -.4445E-02   D at   59  2
       a =  0.500      CL =  0.9054
      Cm = -0.1240     CD =  0.01161   =>   CDf =  0.00716    CDp =  0.00444

 Side 1  free  transition at x/c =  0.2892   40
 Side 2  free  transition at x/c =  0.6794   58

   6   rms: 0.5639E-06   max: -.1088E-04   D at   59  2
       a =  0.500      CL =  0.9054
      Cm = -0.1240     CD =  0.01161   =>   CDf =  0.00716    CDp =  0.00444
      9.000    5.0461   0.011605   0.001489   0.001819   0.000331    0.2892     #

 Point added to stored polar  1
 Point written to save file  polar_output.txt                                
 Dump file unspecified or not available
 Calculating wake trajectory ...
 Calculating source influence matrix ...

 Solving BL system ...

 Side 1  free  transition at x/c =  0.2892   40
 Side 2  free  transition at x/c =  0.6794   58

   1   rms: 0.9714E-01   max: -.8713E+00   C at   58  2   RLX: 0.574
       a =  1.000      CL =  0.9336
      Cm = -0.1233     CD =  0.01169   =>   CDf =  0.00705    CDp =  0.00464

 Side 1  free  transition at x/c =  0.2834   41
 Side 2  free  transition at x/c =  0.6908   58

   2   rms: 0.5481E-01   max: -.6152E+00   C at   58  2   RLX: 0.813
       a =  1.000      CL =  0.9500
      Cm = -0.1229     CD =  0.01182   =>   CDf =  0.00723    CDp =  0.00459

 Side 1  free  transition at x/c =  0.2807   41
 Side 2  free  transition at x/c =  0.7116   59

   3   rms: 0.4531E-01   max: -.8842E+00   C at   59  2   RLX: 0.565
       a =  1.000      CL =  0.9519
      Cm = -0.1228     CD =  0.01183   =>   CDf =  0.00714    CDp =  0.00469

 Side 1  free  transition at x/c =  0.2803   41
 Side 2  free  transition at x/c =  0.7228   59

   4   rms: 0.4684E-01   max: -.9685E+00   C at   59  2   RLX: 0.516
       a =  1.000      CL =  0.9526
      Cm = -0.1228     CD =  0.01181   =>   CDf =  0.00708    CDp =  0.00474

 Side 1  free  transition at x/c =  0.2801   41
 Side 2  free  transition at x/c =  0.7299   60

   5   rms: 0.6622E-01   max: -.1361E+01   C at   60  2   RLX: 0.367
       a =  1.000      CL =  0.9527
      Cm = -0.1227     CD =  0.01177   =>   CDf =  0.00704    CDp =  0.00473

 Side 1  free  transition at x/c =  0.2801   41
 Side 2  free  transition at x/c =  0.7390   60

   6   rms: 0.8051E-01   max: -.1489E+01   C at   60  2   RLX: 0.336
       a =  1.000      CL =  0.9525
      Cm = -0.1226     CD =  0.01173   =>   CDf =  0.00697    CDp =  0.00475

 Side 1  free  transition at x/c =  0.2801   41
 Side 2  free  transition at x/c =  0.7670   62

   7   rms: 0.1317E+00   max: -.2329E+01   C at   62  2   RLX: 0.215
       a =  1.000      CL =  0.9520
      Cm = -0.1225     CD =  0.01163   =>   CDf =  0.00687    CDp =  0.00476

 Side 1  free  transition at x/c =  0.2801   41
 Side 2  free  transition at x/c =  0.7809   63

   8   rms: 0.9562E-01   max: -.1728E+01   C at   63  2   RLX: 0.289
       a =  1.000      CL =  0.9515
      Cm = -0.1223     CD =  0.01159   =>   CDf =  0.00683    CDp =  0.00476

 Side 1  free  transition at x/c =  0.2801   41
 Side 2  free  transition at x/c =  0.7973   64

   9   rms: 0.7037E-01   max: -.1274E+01   C at   64  2   RLX: 0.392
       a =  1.000      CL =  0.9508
      Cm = -0.1221     CD =  0.01155   =>   CDf =  0.00679    CDp =  0.00477

 Side 1  free  transition at x/c =  0.2801   41
 Side 2  free  transition at x/c =  0.8141   65

  10   rms: 0.4305E-01   max: -.7830E+00   C at   65  2   RLX: 0.639
       a =  1.000      CL =  0.9500
      Cm = -0.1219     CD =  0.01151   =>   CDf =  0.00675    CDp =  0.00477

 Side 1  free  transition at x/c =  0.2802   41
 Side 2  free  transition at x/c =  0.8308   66

  11   rms: 0.1456E-01   max: -.2665E+00   C at   66  2
       a =  1.000      CL =  0.9494
      Cm = -0.1217     CD =  0.01149   =>   CDf =  0.00670    CDp =  0.00479

 Side 1  free  transition at x/c =  0.2802   41
 Side 2  free  transition at x/c =  0.8402   66

  12   rms: 0.5078E-03   max: -.8790E-02   C at   66  2
       a =  1.000      CL =  0.9494
      Cm = -0.1217     CD =  0.01150   =>   CDf =  0.00668    CDp =  0.00481

 Side 1  free  transition at x/c =  0.2802   41
 Side 2  free  transition at x/c =  0.8405   66

  13   rms: 0.3776E-05   max: -.6371E-04   C at   66  2
       a =  1.000      CL =  0.9494
      Cm = -0.1217     CD =  0.01150   =>   CDf =  0.00668    CDp =  0.00481
      9.000    5.4359   0.011495   0.001522   0.001900   0.000378    0.2802     #

 Point added to stored polar  1
 Point written to save file  polar_output.txt                                
 Dump file unspecified or not available
 Calculating wake trajectory ...
 Calculating source influence matrix ...

 Solving BL system ...

 Side 1  free  transition at x/c =  0.2802   41
 Side 2  free  transition at x/c =  0.8405   66

   1   rms: 0.3044E+01   max: -.5215E+02   C at   66  2   RLX: 0.010
       a =  1.500      CL =  0.9490
      Cm = -0.1215     CD =  0.01146   =>   CDf =  0.00668    CDp =  0.00478

 Side 1  free  transition at x/c =  0.2802   41
 Side 2  free  transition at x/c =  0.8585   67

   2   rms: 0.3138E+01   max: -.5374E+02   C at   67  2   RLX: 0.009
       a =  1.500      CL =  0.9486
      Cm = -0.1213     CD =  0.01143   =>   CDf =  0.00665    CDp =  0.00478

 Side 1  free  transition at x/c =  0.2801   41
 Side 2  free  transition at x/c =  0.8767   68

   3   rms: 0.3417E+01   max: -.5827E+02   C at   68  2   RLX: 0.009
       a =  1.500      CL =  0.9482
      Cm = -0.1210     CD =  0.01140   =>   CDf =  0.00661    CDp =  0.00479

 Side 1  free  transition at x/c =  0.2801   41
 Side 2  free  transition at x/c =  0.8947   69

   4   rms: 0.4364E+01   max: -.7381E+02   C at   69  2   RLX: 0.007
       a =  1.500      CL =  0.9481
      Cm = -0.1209     CD =  0.01138   =>   CDf =  0.00658    CDp =  0.00480

 Side 1  free  transition at x/c =  0.2801   41
 Side 2  free  transition at x/c =  0.9128   70

   5   rms: 0.8999E+01   max: -.1497E+03   C at   70  2   RLX: 0.003
       a =  1.500      CL =  0.9487
      Cm = -0.1209     CD =  0.01137   =>   CDf =  0.00656    CDp =  0.00481

 Side 1  free  transition at x/c =  0.2800   41
 Side 2  free  transition at x/c =  0.9312   71

   6   rms: 0.2965E+02   max: 0.4802E+03   C at   71  2   RLX: 0.003
       a =  1.500      CL =  0.9448
      Cm = -0.1201     CD =  0.01140   =>   CDf =  0.00654    CDp =  0.00485

 Side 1  free  transition at x/c =  0.2802   41
 Side 2  free  transition at x/c =  0.8834   69

   7   rms: 0.3157E+01   max: -.5796E+02   C at   69  2   RLX: 0.009
       a =  1.500      CL =  0.9446
      Cm = -0.1200     CD =  0.01137   =>   CDf =  0.00660    CDp =  0.00478

 Side 1  free  transition at x/c =  0.2802   41
 Side 2  free  transition at x/c =  0.9028   70

   8   rms: 0.5038E+01   max: -.9009E+02   C at   70  2   RLX: 0.006
       a =  1.500      CL =  0.9449
      Cm = -0.1199     CD =  0.01136   =>   CDf =  0.00657    CDp =  0.00479

 Side 1  free  transition at x/c =  0.2801   41
 Side 2  free  transition at x/c =  0.9220   71

   9   rms: 0.7167E+02   max: -.1233E+04   C at   71  2   RLX: 0.000
       a =  1.500      CL =  0.9460
      Cm = -0.1201     CD =  0.01135   =>   CDf =  0.00655    CDp =  0.00480

 Side 1  free  transition at x/c =  0.2801   41
 Side 2  free  transition at x/c =  0.9402   72

  10   rms: 0.1096E+02   max: 0.1812E+03   C at   72  2   RLX: 0.008
       a =  1.500      CL =  0.9413
      Cm = -0.1191     CD =  0.01137   =>   CDf =  0.00654    CDp =  0.00483

 Side 1  free  transition at x/c =  0.2803   41
 Side 2  free  transition at x/c =  0.8929   69

  11   rms: 0.4859E+01   max: -.8316E+02   C at   69  2   RLX: 0.006
       a =  1.500      CL =  0.9415
      Cm = -0.1190     CD =  0.01135   =>   CDf =  0.00658    CDp =  0.00478

 Side 1  free  transition at x/c =  0.2803   41
 Side 2  free  transition at x/c =  0.9110   70

  12   rms: 0.1331E+02   max: -.2234E+03   C at   70  2   RLX: 0.002
       a =  1.500      CL =  0.9422
      Cm = -0.1191     CD =  0.01134   =>   CDf =  0.00655    CDp =  0.00479

 Side 1  free  transition at x/c =  0.2802   41
 Side 2  free  transition at x/c =  0.9287   71

  13   rms: 0.1163E+02   max: 0.1887E+03   C at   71  2   RLX: 0.008
       a =  1.500      CL =  0.9377
      Cm = -0.1181     CD =  0.01136   =>   CDf =  0.00654    CDp =  0.00482

 Side 1  free  transition at x/c =  0.2804   41
 Side 2  free  transition at x/c =  0.8866   69

  14   rms: 0.3914E+01   max: -.7043E+02   C at   69  2   RLX: 0.007
       a =  1.500      CL =  0.9378
      Cm = -0.1180     CD =  0.01134   =>   CDf =  0.00658    CDp =  0.00476

 Side 1  free  transition at x/c =  0.2804   41
 Side 2  free  transition at x/c =  0.9059   70

  15   rms: 0.8536E+01   max: -.1494E+03   C at   70  2   RLX: 0.003
       a =  1.500      CL =  0.9384
      Cm = -0.1181     CD =  0.01133   =>   CDf =  0.00656    CDp =  0.00477

 Side 1  free  transition at x/c =  0.2803   41
 Side 2  free  transition at x/c =  0.9241   71

  16   rms: 0.1039E+02   max: 0.1725E+03   C at   71  2   RLX: 0.009
       a =  1.500      CL =  0.9338
      Cm = -0.1170     CD =  0.01135   =>   CDf =  0.00654    CDp =  0.00481

 Side 1  free  transition at x/c =  0.2806   41
 Side 2  free  transition at x/c =  0.8841   69

  17   rms: 0.3751E+01   max: -.6872E+02   C at   69  2   RLX: 0.007
       a =  1.500      CL =  0.9338
      Cm = -0.1169     CD =  0.01132   =>   CDf =  0.00659    CDp =  0.00474

 Side 1  free  transition at x/c =  0.2805   41
 Side 2  free  transition at x/c =  0.9033   70

  18   rms: 0.7854E+01   max: -.1398E+03   C at   70  2   RLX: 0.004
       a =  1.500      CL =  0.9344
      Cm = -0.1170     CD =  0.01131   =>   CDf =  0.00656    CDp =  0.00475

 Side 1  free  transition at x/c =  0.2805   41
 Side 2  free  transition at x/c =  0.9211   71

  19   rms: 0.9389E+01   max: 0.1582E+03   C at   71  2   RLX: 0.009
       a =  1.500      CL =  0.9297
      Cm = -0.1159     CD =  0.01133   =>   CDf =  0.00654    CDp =  0.00479

 Side 1  free  transition at x/c =  0.2807   41
 Side 2  free  transition at x/c =  0.8831   69

  20   rms: 0.3753E+01   max: -.6927E+02   C at   69  2   RLX: 0.007
       a =  1.500      CL =  0.9298
      Cm = -0.1158     CD =  0.01130   =>   CDf =  0.00658    CDp =  0.00472

 Side 1  free  transition at x/c =  0.2806   41
 Side 2  free  transition at x/c =  0.9020   70

  21   rms: 0.7946E+01   max: -.1425E+03   C at   70  2   RLX: 0.004
       a =  1.500      CL =  0.9304
      Cm = -0.1159     CD =  0.01129   =>   CDf =  0.00655    CDp =  0.00473

 Side 1  free  transition at x/c =  0.2806   41
 Side 2  free  transition at x/c =  0.9192   71

  22   rms: 0.1080E+02   max: 0.1864E+03   C at   71  2   RLX: 0.008
       a =  1.500      CL =  0.9258
      Cm = -0.1148     CD =  0.01132   =>   CDf =  0.00653    CDp =  0.00478

 Side 1  free  transition at x/c =  0.2808   41
 Side 2  free  transition at x/c =  0.8825   69

  23   rms: 0.3749E+01   max: -.6949E+02   C at   69  2   RLX: 0.007
       a =  1.500      CL =  0.9259
      Cm = -0.1147     CD =  0.01128   =>   CDf =  0.00658    CDp =  0.00470

 Side 1  free  transition at x/c =  0.2808   41
 Side 2  free  transition at x/c =  0.9010   70

  24   rms: 0.7893E+01   max: -.1423E+03   C at   70  2   RLX: 0.004
       a =  1.500      CL =  0.9265
      Cm = -0.1148     CD =  0.01127   =>   CDf =  0.00655    CDp =  0.00472

 Side 1  free  transition at x/c =  0.2807   41
 Side 2  free  transition at x/c =  0.9175   71

  25   rms: 0.1091E+02   max: 0.1898E+03   C at   71  2   RLX: 0.008
       a =  1.500      CL =  0.9219
      Cm = -0.1138     CD =  0.01130   =>   CDf =  0.00653    CDp =  0.00477

 Side 1  free  transition at x/c =  0.2809   41
 Side 2  free  transition at x/c =  0.8818   68

  26   rms: 0.4496E+01   max: -.7487E+02   C at   68  2   RLX: 0.007
       a =  1.500      CL =  0.9220
      Cm = -0.1137     CD =  0.01126   =>   CDf =  0.00658    CDp =  0.00469

 Side 1  free  transition at x/c =  0.2809   41
 Side 2  free  transition at x/c =  0.9005   70

  27   rms: 0.7698E+01   max: -.1392E+03   C at   70  2   RLX: 0.004
       a =  1.500      CL =  0.9226
      Cm = -0.1138     CD =  0.01125   =>   CDf =  0.00655    CDp =  0.00470

 Side 1  free  transition at x/c =  0.2808   41
 Side 2  free  transition at x/c =  0.9163   70

  28   rms: 0.1575E+02   max: 0.2501E+03   C at   70  2   RLX: 0.006
       a =  1.500      CL =  0.9184
      Cm = -0.1128     CD =  0.01127   =>   CDf =  0.00653    CDp =  0.00474

 Side 1  free  transition at x/c =  0.2811   41
 Side 2  free  transition at x/c =  0.8789   68

  29   rms: 0.4283E+01   max: -.7243E+02   C at   68  2   RLX: 0.007
       a =  1.500      CL =  0.9186
      Cm = -0.1128     CD =  0.01125   =>   CDf =  0.00658    CDp =  0.00467

 Side 1  free  transition at x/c =  0.2810   41
 Side 2  free  transition at x/c =  0.8976   69

  30   rms: 0.7666E+01   max: -.1271E+03   C at   69  2   RLX: 0.004
       a =  1.500      CL =  0.9191
      Cm = -0.1128     CD =  0.01123   =>   CDf =  0.00655    CDp =  0.00469

 Side 1  free  transition at x/c =  0.2810   41
 Side 2  free  transition at x/c =  0.9141   70

  31   rms: 0.1760E+02   max: 0.2825E+03   C at   70  2   RLX: 0.005
       a =  1.500      CL =  0.9150
      Cm = -0.1119     CD =  0.01125   =>   CDf =  0.00652    CDp =  0.00473

 Side 1  free  transition at x/c =  0.2812   41
 Side 2  free  transition at x/c =  0.8773   68

  32   rms: 0.4111E+01   max: -.7007E+02   C at   68  2   RLX: 0.007
       a =  1.500      CL =  0.9151
      Cm = -0.1118     CD =  0.01123   =>   CDf =  0.00658    CDp =  0.00465

 Side 1  free  transition at x/c =  0.2811   41
 Side 2  free  transition at x/c =  0.8961   69

  33   rms: 0.6950E+01   max: -.1162E+03   C at   69  2   RLX: 0.004
       a =  1.500      CL =  0.9156
      Cm = -0.1119     CD =  0.01122   =>   CDf =  0.00654    CDp =  0.00467

 Side 1  free  transition at x/c =  0.2811   41
 Side 2  free  transition at x/c =  0.9127   70

  34   rms: 0.1985E+02   max: 0.3204E+03   C at   70  2   RLX: 0.005
       a =  1.500      CL =  0.9117
      Cm = -0.1110     CD =  0.01123   =>   CDf =  0.00652    CDp =  0.00471

 Side 1  free  transition at x/c =  0.2813   41
 Side 2  free  transition at x/c =  0.8773   68

  35   rms: 0.4016E+01   max: -.6839E+02   C at   68  2   RLX: 0.007
       a =  1.500      CL =  0.9118
      Cm = -0.1109     CD =  0.01121   =>   CDf =  0.00657    CDp =  0.00464

 Side 1  free  transition at x/c =  0.2812   41
 Side 2  free  transition at x/c =  0.8960   69

  36   rms: 0.6476E+01   max: -.1082E+03   C at   69  2   RLX: 0.005
       a =  1.500      CL =  0.9122
      Cm = -0.1109     CD =  0.01120   =>   CDf =  0.00654    CDp =  0.00466

 Side 1  free  transition at x/c =  0.2812   41
 Side 2  free  transition at x/c =  0.9125   70

  37   rms: 0.2106E+02   max: 0.3387E+03   C at   70  2   RLX: 0.004
       a =  1.500      CL =  0.9084
      Cm = -0.1101     CD =  0.01121   =>   CDf =  0.00651    CDp =  0.00470

 Side 1  free  transition at x/c =  0.2814   41
 Side 2  free  transition at x/c =  0.8786   68

  38   rms: 0.3955E+01   max: -.6680E+02   C at   68  2   RLX: 0.007
       a =  1.500      CL =  0.9084
      Cm = -0.1100     CD =  0.01119   =>   CDf =  0.00656    CDp =  0.00462

 Side 1  free  transition at x/c =  0.2813   41
 Side 2  free  transition at x/c =  0.8971   69

  39   rms: 0.6645E+01   max: -.1101E+03   C at   69  2   RLX: 0.005
       a =  1.500      CL =  0.9089
      Cm = -0.1100     CD =  0.01118   =>   CDf =  0.00653    CDp =  0.00464

 Side 1  free  transition at x/c =  0.2813   41
 Side 2  free  transition at x/c =  0.9135   70

  40   rms: 0.1333E+02   max: 0.2084E+03   C at   70  2   RLX: 0.007
       a =  1.500      CL =  0.9048
      Cm = -0.1091     CD =  0.01119   =>   CDf =  0.00651    CDp =  0.00468

 Side 1  free  transition at x/c =  0.2815   41
 Side 2  free  transition at x/c =  0.8810   68

  41   rms: 0.3985E+01   max: -.6638E+02   C at   68  2   RLX: 0.008
       a =  1.500      CL =  0.9049
      Cm = -0.1090     CD =  0.01117   =>   CDf =  0.00656    CDp =  0.00461

 Side 1  free  transition at x/c =  0.2814   41
 Side 2  free  transition at x/c =  0.8993   69

  42   rms: 0.6715E+01   max: -.1096E+03   C at   69  2   RLX: 0.005
       a =  1.500      CL =  0.9054
      Cm = -0.1090     CD =  0.01116   =>   CDf =  0.00653    CDp =  0.00463

 Side 1  free  transition at x/c =  0.2814   41
 Side 2  free  transition at x/c =  0.9156   70

  43   rms: 0.1070E+02   max: 0.1641E+03   C at   70  2   RLX: 0.009
       a =  1.500      CL =  0.9011
      Cm = -0.1080     CD =  0.01116   =>   CDf =  0.00650    CDp =  0.00466

 Side 1  free  transition at x/c =  0.2816   41
 Side 2  free  transition at x/c =  0.8841   69

  44   rms: 0.3374E+01   max: -.6137E+02   C at   69  2   RLX: 0.008
       a =  1.500      CL =  0.9012
      Cm = -0.1079     CD =  0.01114   =>   CDf =  0.00655    CDp =  0.00459

 Side 1  free  transition at x/c =  0.2816   41
 Side 2  free  transition at x/c =  0.9021   70

  45   rms: 0.1082E+02   max: -.1875E+03   C at   70  2   RLX: 0.003
       a =  1.500      CL =  0.9019
      Cm = -0.1080     CD =  0.01114   =>   CDf =  0.00652    CDp =  0.00462

 Side 1  free  transition at x/c =  0.2815   41
 Side 2  free  transition at x/c =  0.9148   70

  46   rms: 0.9858E+01   max: 0.1518E+03   C at   70  2   RLX: 0.010
       a =  1.500      CL =  0.8975
      Cm = -0.1070     CD =  0.01115   =>   CDf =  0.00650    CDp =  0.00465

 Side 1  free  transition at x/c =  0.2817   41
 Side 2  free  transition at x/c =  0.8834   69

  47   rms: 0.3310E+01   max: -.6047E+02   C at   69  2   RLX: 0.008
       a =  1.500      CL =  0.8976
      Cm = -0.1069     CD =  0.01112   =>   CDf =  0.00655    CDp =  0.00458

 Side 1  free  transition at x/c =  0.2817   41
 Side 2  free  transition at x/c =  0.9012   70

  48   rms: 0.1028E+02   max: -.1790E+03   C at   70  2   RLX: 0.003
       a =  1.500      CL =  0.8983
      Cm = -0.1069     CD =  0.01112   =>   CDf =  0.00652    CDp =  0.00461

 Side 1  free  transition at x/c =  0.2816   41
 Side 2  free  transition at x/c =  0.9139   70

  49   rms: 0.9059E+01   max: 0.1401E+03   C at   70  2   RLX: 0.011
       a =  1.500      CL =  0.8938
      Cm = -0.1059     CD =  0.01113   =>   CDf =  0.00650    CDp =  0.00463

 Side 1  free  transition at x/c =  0.2818   41
 Side 2  free  transition at x/c =  0.8828   69

  50   rms: 0.3242E+01   max: -.5946E+02   C at   69  2   RLX: 0.008
       a =  1.500      CL =  0.8939
      Cm = -0.1058     CD =  0.01111   =>   CDf =  0.00654    CDp =  0.00456

 Side 1  free  transition at x/c =  0.2818   41
 Side 2  free  transition at x/c =  0.9002   70

  51   rms: 0.7526E+01   max: -.1341E+03   C at   70  2   RLX: 0.004
       a =  1.500      CL =  0.8945
      Cm = -0.1059     CD =  0.01110   =>   CDf =  0.00651    CDp =  0.00459

 Side 1  free  transition at x/c =  0.2817   41
 Side 2  free  transition at x/c =  0.9132   70

  52   rms: 0.8031E+01   max: 0.1245E+03   C at   70  2   RLX: 0.012
       a =  1.500      CL =  0.8898
      Cm = -0.1048     CD =  0.01111   =>   CDf =  0.00649    CDp =  0.00461

 Side 1  free  transition at x/c =  0.2819   41
 Side 2  free  transition at x/c =  0.8828   69

  53   rms: 0.3251E+01   max: -.5960E+02   C at   69  2   RLX: 0.008
       a =  1.500      CL =  0.8899
      Cm = -0.1047     CD =  0.01109   =>   CDf =  0.00654    CDp =  0.00455

 Side 1  free  transition at x/c =  0.2819   41
 Side 2  free  transition at x/c =  0.8999   69

  54   rms: 0.8337E+01   max: -.1345E+03   C at   69  2   RLX: 0.004
       a =  1.500      CL =  0.8906
      Cm = -0.1047     CD =  0.01109   =>   CDf =  0.00651    CDp =  0.00458

 Side 1  free  transition at x/c =  0.2818   41
 Side 2  free  transition at x/c =  0.9153   70

  55   rms: 0.5515E+01   max: 0.8376E+02   C at   70  2   RLX: 0.018
       a =  1.500      CL =  0.8851
      Cm = -0.1034     CD =  0.01108   =>   CDf =  0.00649    CDp =  0.00459

 Side 1  free  transition at x/c =  0.2821   41
 Side 2  free  transition at x/c =  0.8872   69

  56   rms: 0.4670E+01   max: -.8165E+02   C at   69  2   RLX: 0.006
       a =  1.500      CL =  0.8855
      Cm = -0.1033     CD =  0.01106   =>   CDf =  0.00653    CDp =  0.00453

 Side 1  free  transition at x/c =  0.2820   41
 Side 2  free  transition at x/c =  0.9036   70

  57   rms: 0.1786E+03   max: -.3036E+04   C at   70  2   RLX: 0.000
       a =  1.500      CL =  0.8866
      Cm = -0.1035     CD =  0.01106   =>   CDf =  0.00650    CDp =  0.00456

 Side 1  free  transition at x/c =  0.2819   41
 Side 2  free  transition at x/c =  0.9160   70

  58   rms: 0.4355E+01   max: 0.6568E+02   C at   70  2   RLX: 0.023
       a =  1.500      CL =  0.8806
      Cm = -0.1020     CD =  0.01106   =>   CDf =  0.00649    CDp =  0.00457

 Side 1  free  transition at x/c =  0.2822   41
 Side 2  free  transition at x/c =  0.8967   69

  59   rms: 0.8718E+01   max: -.1433E+03   C at   69  2   RLX: 0.003
       a =  1.500      CL =  0.8812
      Cm = -0.1020     CD =  0.01103   =>   CDf =  0.00651    CDp =  0.00452

 Side 1  free  transition at x/c =  0.2821   41
 Side 2  free  transition at x/c =  0.9124   70

  60   rms: 0.5084E+01   max: 0.7883E+02   C at   70  2   RLX: 0.019
       a =  1.500      CL =  0.8751
      Cm = -0.1005     CD =  0.01102   =>   CDf =  0.00649    CDp =  0.00454

 Side 1  free  transition at x/c =  0.2824   41
 Side 2  free  transition at x/c =  0.8868   69

  61   rms: 0.5220E+01   max: -.9117E+02   C at   69  2   RLX: 0.005
       a =  1.500      CL =  0.8756
      Cm = -0.1005     CD =  0.01100   =>   CDf =  0.00652    CDp =  0.00448

 Side 1  free  transition at x/c =  0.2823   41
 Side 2  free  transition at x/c =  0.9033   70

  62   rms: 0.2179E+02   max: 0.3697E+03   C at   70  2   RLX: 0.004
       a =  1.500      CL =  0.8710
      Cm = -0.0995     CD =  0.01100   =>   CDf =  0.00649    CDp =  0.00451

 Side 1  free  transition at x/c =  0.2826   41
 Side 2  free  transition at x/c =  0.8722   68

  63   rms: 0.3358E+01   max: -.5822E+02   C at   68  2   RLX: 0.009
       a =  1.500      CL =  0.8711
      Cm = -0.0993     CD =  0.01098   =>   CDf =  0.00654    CDp =  0.00444

 Side 1  free  transition at x/c =  0.2825   41
 Side 2  free  transition at x/c =  0.8912   69

  64   rms: 0.5375E+01   max: -.9103E+02   C at   69  2   RLX: 0.005
       a =  1.500      CL =  0.8718
      Cm = -0.0993     CD =  0.01098   =>   CDf =  0.00651    CDp =  0.00447

 Side 1  free  transition at x/c =  0.2825   41
 Side 2  free  transition at x/c =  0.9072   70

  65   rms: 0.8257E+01   max: 0.1349E+03   C at   70  2   RLX: 0.011
       a =  1.500      CL =  0.8662
      Cm = -0.0981     CD =  0.01097   =>   CDf =  0.00648    CDp =  0.00448

 Side 1  free  transition at x/c =  0.2827   41
 Side 2  free  transition at x/c =  0.8776   68

  66   rms: 0.3763E+01   max: -.6316E+02   C at   68  2   RLX: 0.008
       a =  1.500      CL =  0.8664
      Cm = -0.0979     CD =  0.01095   =>   CDf =  0.00653    CDp =  0.00442

 Side 1  free  transition at x/c =  0.2827   41
 Side 2  free  transition at x/c =  0.8957   69

  67   rms: 0.9237E+01   max: -.1517E+03   C at   69  2   RLX: 0.003
       a =  1.500      CL =  0.8673
      Cm = -0.0980     CD =  0.01095   =>   CDf =  0.00650    CDp =  0.00445

 Side 1  free  transition at x/c =  0.2826   41
 Side 2  free  transition at x/c =  0.9110   70

  68   rms: 0.3602E+01   max: 0.5568E+02   C at   70  2   RLX: 0.027
       a =  1.500      CL =  0.8600
      Cm = -0.0962     CD =  0.01093   =>   CDf =  0.00647    CDp =  0.00445

 Side 1  free  transition at x/c =  0.2829   41
 Side 2  free  transition at x/c =  0.8809   68

  69   rms: 0.5254E+01   max: -.8649E+02   C at   68  2   RLX: 0.006
       a =  1.500      CL =  0.8605
      Cm = -0.0962     CD =  0.01091   =>   CDf =  0.00652    CDp =  0.00440

 Side 1  free  transition at x/c =  0.2828   41
 Side 2  free  transition at x/c =  0.8986   69

  70   rms: 0.3666E+02   max: 0.5809E+03   C at   69  2   RLX: 0.003
       a =  1.500      CL =  0.8561
      Cm = -0.0952     CD =  0.01090   =>   CDf =  0.00649    CDp =  0.00442

 Side 1  free  transition at x/c =  0.2831   41
 Side 2  free  transition at x/c =  0.8569   67

  71   rms: 0.3595E+01   max: -.6151E+02   C at   67  2   RLX: 0.008
       a =  1.500      CL =  0.8564
      Cm = -0.0952     CD =  0.01091   =>   CDf =  0.00656    CDp =  0.00435

 Side 1  free  transition at x/c =  0.2830   41
 Side 2  free  transition at x/c =  0.8752   68

  72   rms: 0.3999E+01   max: -.6782E+02   C at   68  2   RLX: 0.007
       a =  1.500      CL =  0.8569
      Cm = -0.0952     CD =  0.01090   =>   CDf =  0.00652    CDp =  0.00438

 Side 1  free  transition at x/c =  0.2830   41
 Side 2  free  transition at x/c =  0.8932   69

  73   rms: 0.1512E+02   max: -.2508E+03   C at   69  2   RLX: 0.002
       a =  1.500      CL =  0.8579
      Cm = -0.0953     CD =  0.01090   =>   CDf =  0.00649    CDp =  0.00441

 Side 1  free  transition at x/c =  0.2829   41
 Side 2  free  transition at x/c =  0.9079   70

  74   rms: 0.2915E+01   max: 0.4580E+02   C at   70  2   RLX: 0.033
       a =  1.500      CL =  0.8505
      Cm = -0.0935     CD =  0.01086   =>   CDf =  0.00647    CDp =  0.00439

 Side 1  free  transition at x/c =  0.2832   41
 Side 2  free  transition at x/c =  0.8748   68

  75   rms: 0.5241E+01   max: -.8902E+02   C at   68  2   RLX: 0.006
       a =  1.500      CL =  0.8511
      Cm = -0.0934     CD =  0.01087   =>   CDf =  0.00652    CDp =  0.00434

 Side 1  free  transition at x/c =  0.2831   41
 Side 2  free  transition at x/c =  0.8926   69

  76   rms: 0.7133E+02   max: 0.1186E+04   C at   69  2   RLX: 0.001
       a =  1.500      CL =  0.8472
      Cm = -0.0926     CD =  0.01086   =>   CDf =  0.00649    CDp =  0.00437

 Side 1  free  transition at x/c =  0.2834   41
 Side 2  free  transition at x/c =  0.8512   67

  77   rms: 0.3455E+01   max: -.6084E+02   C at   67  2   RLX: 0.008
       a =  1.500      CL =  0.8475
      Cm = -0.0925     CD =  0.01086   =>   CDf =  0.00657    CDp =  0.00430

 Side 1  free  transition at x/c =  0.2833   41
 Side 2  free  transition at x/c =  0.8700   68

  78   rms: 0.4039E+01   max: -.7046E+02   C at   68  2   RLX: 0.007
       a =  1.500      CL =  0.8479
      Cm = -0.0926     CD =  0.01085   =>   CDf =  0.00653    CDp =  0.00432

 Side 1  free  transition at x/c =  0.2833   41
 Side 2  free  transition at x/c =  0.8881   69

  79   rms: 0.2068E+02   max: -.3522E+03   C at   69  2   RLX: 0.001
       a =  1.500      CL =  0.8489
      Cm = -0.0927     CD =  0.01086   =>   CDf =  0.00649    CDp =  0.00436

 Side 1  free  transition at x/c =  0.2832   41
 Side 2  free  transition at x/c =  0.9022   70

  80   rms: 0.2910E+01   max: 0.4833E+02   C at   70  2   RLX: 0.031
       a =  1.500      CL =  0.8425
      Cm = -0.0912     CD =  0.01083   =>   CDf =  0.00647    CDp =  0.00436

 Side 1  free  transition at x/c =  0.2835   41
 Side 2  free  transition at x/c =  0.8709   68

  81   rms: 0.4967E+01   max: -.8617E+02   C at   68  2   RLX: 0.006
       a =  1.500      CL =  0.8428
      Cm = -0.0910     CD =  0.01082   =>   CDf =  0.00652    CDp =  0.00430

 Side 1  free  transition at x/c =  0.2834   41
 Side 2  free  transition at x/c =  0.8888   69

  82   rms: 0.3005E+02   max: 0.5085E+03   C at   69  2   RLX: 0.003
       a =  1.500      CL =  0.8389
      Cm = -0.0902     CD =  0.01082   =>   CDf =  0.00649    CDp =  0.00433

 Side 1  free  transition at x/c =  0.2836   41
 Side 2  free  transition at x/c =  0.8518   67

  83   rms: 0.3576E+01   max: -.6270E+02   C at   67  2   RLX: 0.008
       a =  1.500      CL =  0.8392
      Cm = -0.0900     CD =  0.01081   =>   CDf =  0.00656    CDp =  0.00425

 Side 1  free  transition at x/c =  0.2835   41
 Side 2  free  transition at x/c =  0.8704   68

  84   rms: 0.4673E+01   max: -.8117E+02   C at   68  2   RLX: 0.006
       a =  1.500      CL =  0.8398
      Cm = -0.0900     CD =  0.01081   =>   CDf =  0.00652    CDp =  0.00428

 Side 1  free  transition at x/c =  0.2835   41
 Side 2  free  transition at x/c =  0.8881   69

  85   rms: 0.2177E+02   max: 0.3682E+03   C at   69  2   RLX: 0.004
       a =  1.500      CL =  0.8358
      Cm = -0.0892     CD =  0.01080   =>   CDf =  0.00649    CDp =  0.00431

 Side 1  free  transition at x/c =  0.2837   41
 Side 2  free  transition at x/c =  0.8529   67

  86   rms: 0.3715E+01   max: -.6476E+02   C at   67  2   RLX: 0.008
       a =  1.500      CL =  0.8360
      Cm = -0.0890     CD =  0.01079   =>   CDf =  0.00656    CDp =  0.00424

 Side 1  free  transition at x/c =  0.2836   41
 Side 2  free  transition at x/c =  0.8712   68

  87   rms: 0.5302E+01   max: -.9135E+02   C at   68  2   RLX: 0.005
       a =  1.500      CL =  0.8367
      Cm = -0.0890     CD =  0.01079   =>   CDf =  0.00652    CDp =  0.00427

 Side 1  free  transition at x/c =  0.2836   41
 Side 2  free  transition at x/c =  0.8884   69

  88   rms: 0.1019E+02   max: 0.1711E+03   C at   69  2   RLX: 0.009
       a =  1.500      CL =  0.8324
      Cm = -0.0881     CD =  0.01077   =>   CDf =  0.00649    CDp =  0.00429

 Side 1  free  transition at x/c =  0.2838   41
 Side 2  free  transition at x/c =  0.8535   67

  89   rms: 0.4007E+01   max: -.6962E+02   C at   67  2   RLX: 0.007
       a =  1.500      CL =  0.8326
      Cm = -0.0879     CD =  0.01078   =>   CDf =  0.00656    CDp =  0.00422

 Side 1  free  transition at x/c =  0.2837   41
 Side 2  free  transition at x/c =  0.8717   68

  90   rms: 0.6643E+01   max: -.1140E+03   C at   68  2   RLX: 0.004
       a =  1.500      CL =  0.8334
      Cm = -0.0880     CD =  0.01077   =>   CDf =  0.00652    CDp =  0.00425

 Side 1  free  transition at x/c =  0.2837   41
 Side 2  free  transition at x/c =  0.8886   69

  91   rms: 0.5838E+01   max: 0.9758E+02   C at   69  2   RLX: 0.015
       a =  1.500      CL =  0.8287
      Cm = -0.0869     CD =  0.01075   =>   CDf =  0.00648    CDp =  0.00427

 Side 1  free  transition at x/c =  0.2839   41
 Side 2  free  transition at x/c =  0.8543   67

  92   rms: 0.4482E+01   max: -.7752E+02   C at   67  2   RLX: 0.006
       a =  1.500      CL =  0.8290
      Cm = -0.0867     CD =  0.01075   =>   CDf =  0.00655    CDp =  0.00420

 Side 1  free  transition at x/c =  0.2838   41
 Side 2  free  transition at x/c =  0.8725   68

  93   rms: 0.1002E+02   max: -.1712E+03   C at   68  2   RLX: 0.003
       a =  1.500      CL =  0.8298
      Cm = -0.0868     CD =  0.01075   =>   CDf =  0.00652    CDp =  0.00424

 Side 1  free  transition at x/c =  0.2838   41
 Side 2  free  transition at x/c =  0.8890   69

  94   rms: 0.3569E+01   max: 0.5917E+02   C at   69  2   RLX: 0.025
       a =  1.500      CL =  0.8246
      Cm = -0.0856     CD =  0.01073   =>   CDf =  0.00648    CDp =  0.00425

 Side 1  free  transition at x/c =  0.2840   41
 Side 2  free  transition at x/c =  0.8562   67

  95   rms: 0.5390E+01   max: -.9225E+02   C at   67  2   RLX: 0.005
       a =  1.500      CL =  0.8249
      Cm = -0.0854     CD =  0.01073   =>   CDf =  0.00655    CDp =  0.00418

 Side 1  free  transition at x/c =  0.2839   41
 Side 2  free  transition at x/c =  0.8741   68

  96   rms: 0.3293E+02   max: -.5568E+03   C at   68  2   RLX: 0.001
       a =  1.500      CL =  0.8259
      Cm = -0.0856     CD =  0.01073   =>   CDf =  0.00651    CDp =  0.00422

 Side 1  free  transition at x/c =  0.2839   41
 Side 2  free  transition at x/c =  0.8902   69

  97   rms: 0.2238E+01   max: 0.3593E+02   C at   69  2   RLX: 0.042
       a =  1.500      CL =  0.8199
      Cm = -0.0841     CD =  0.01069   =>   CDf =  0.00648    CDp =  0.00422

 Side 1  free  transition at x/c =  0.2841   41
 Side 2  free  transition at x/c =  0.8585   67

  98   rms: 0.7456E+01   max: -.1258E+03   C at   67  2   RLX: 0.004
       a =  1.500      CL =  0.8203
      Cm = -0.0840     CD =  0.01071   =>   CDf =  0.00654    CDp =  0.00417

 Side 1  free  transition at x/c =  0.2840   41
 Side 2  free  transition at x/c =  0.8762   68

  99   rms: 0.1701E+02   max: 0.2837E+03   C at   68  2   RLX: 0.005
       a =  1.500      CL =  0.8168
      Cm = -0.0832     CD =  0.01072   =>   CDf =  0.00650    CDp =  0.00422

 Side 1  free  transition at x/c =  0.2842   41
 Side 2  free  transition at x/c =  0.8342   66

 100   rms: 0.4447E+01   max: -.7777E+02   C at   66  2   RLX: 0.006
       a =  1.500      CL =  0.8172
      Cm = -0.0832     CD =  0.01073   =>   CDf =  0.00659    CDp =  0.00414

 Side 1  free  transition at x/c =  0.2842   41
 Side 2  free  transition at x/c =  0.8523   67

 101   rms: 0.5986E+01   max: -.1045E+03   C at   67  2   RLX: 0.005
       a =  1.500      CL =  0.8180
      Cm = -0.0833     CD =  0.01071   =>   CDf =  0.00655    CDp =  0.00416

 Side 1  free  transition at x/c =  0.2841   41
 Side 2  free  transition at x/c =  0.8702   68

 102   rms: 0.6210E+02   max: 0.1069E+04   C at   68  2   RLX: 0.001
       a =  1.500      CL =  0.8147
      Cm = -0.0826     CD =  0.01073   =>   CDf =  0.00661    CDp =  0.00412

 Side 1  free  transition at x/c =  0.2843   40
 Side 2  free  transition at x/c =  0.8298   67

 103   rms: 0.4357E+01   max: -.7768E+02   C at   67  2   RLX: 0.006
       a =  1.500      CL =  0.8151
      Cm = -0.0825     CD =  0.01073   =>   CDf =  0.00650    CDp =  0.00423

 Side 1  free  transition at x/c =  0.2842   41
 Side 2  free  transition at x/c =  0.8485   67

 104   rms: 0.5874E+01   max: -.1013E+03   C at   67  2   RLX: 0.005
       a =  1.500      CL =  0.8159
      Cm = -0.0826     CD =  0.01071   =>   CDf =  0.00656    CDp =  0.00415

 Side 1  free  transition at x/c =  0.2842   41
 Side 2  free  transition at x/c =  0.8665   68

 105   rms: 0.8004E+02   max: -.1412E+04   C at   68  2   RLX: 0.000
       a =  1.500      CL =  0.8168
      Cm = -0.0827     CD =  0.01070   =>   CDf =  0.00652    CDp =  0.00418

 Side 1  free  transition at x/c =  0.2841   41
 Side 2  free  transition at x/c =  0.8812   68

 106   rms: 0.2976E+01   max: 0.4640E+02   C at   68  2   RLX: 0.032
       a =  1.500      CL =  0.8117
      Cm = -0.0816     CD =  0.01068   =>   CDf =  0.00658    CDp =  0.00410

 Side 1  free  transition at x/c =  0.2843   40
 Side 2  free  transition at x/c =  0.8440   67

 107   rms: 0.6362E+01   max: -.1056E+03   C at   67  2   RLX: 0.005
       a =  1.500      CL =  0.8121
      Cm = -0.0814     CD =  0.01070   =>   CDf =  0.00657    CDp =  0.00413

 Side 1  free  transition at x/c =  0.2843   40
 Side 2  free  transition at x/c =  0.8614   68

 108   rms: 0.2040E+02   max: -.3385E+03   C at   68  2   RLX: 0.001
       a =  1.500      CL =  0.8129
      Cm = -0.0815     CD =  0.01069   =>   CDf =  0.00654    CDp =  0.00415

 Side 1  free  transition at x/c =  0.2842   40
 Side 2  free  transition at x/c =  0.8780   69

 109   rms: 0.2765E+01   max: 0.4394E+02   C at   69  2   RLX: 0.034
       a =  1.500      CL =  0.8080
      Cm = -0.0804     CD =  0.01067   =>   CDf =  0.00650    CDp =  0.00417

 Side 1  free  transition at x/c =  0.2844   40
 Side 2  free  transition at x/c =  0.8416   67

 110   rms: 0.6840E+01   max: -.1151E+03   C at   67  2   RLX: 0.004
       a =  1.500      CL =  0.8084
      Cm = -0.0802     CD =  0.01069   =>   CDf =  0.00658    CDp =  0.00412

 Side 1  free  transition at x/c =  0.2844   40
 Side 2  free  transition at x/c =  0.8592   68

 111   rms: 0.4376E+02   max: -.7349E+03   C at   68  2   RLX: 0.001
       a =  1.500      CL =  0.8092
      Cm = -0.0804     CD =  0.01068   =>   CDf =  0.00654    CDp =  0.00414

 Side 1  free  transition at x/c =  0.2843   40
 Side 2  free  transition at x/c =  0.8759   69

 112   rms: 0.2608E+01   max: 0.4206E+02   C at   69  2   RLX: 0.036
       a =  1.500      CL =  0.8047
      Cm = -0.0793     CD =  0.01067   =>   CDf =  0.00650    CDp =  0.00417

 Side 1  free  transition at x/c =  0.2845   40
 Side 2  free  transition at x/c =  0.8404   67

 113   rms: 0.7565E+01   max: -.1281E+03   C at   67  2   RLX: 0.004
       a =  1.500      CL =  0.8051
      Cm = -0.0791     CD =  0.01069   =>   CDf =  0.00658    CDp =  0.00411

 Side 1  free  transition at x/c =  0.2844   40
 Side 2  free  transition at x/c =  0.8580   68

 114   rms: 0.8438E+02   max: 0.1426E+04   C at   68  2   RLX: 0.001
       a =  1.500      CL =  0.8022
      Cm = -0.0785     CD =  0.01073   =>   CDf =  0.00654    CDp =  0.00419

 Side 1  free  transition at x/c =  0.2846   40
 Side 2  free  transition at x/c =  0.8154   66

 115   rms: 0.4580E+01   max: -.8051E+02   C at   66  2   RLX: 0.006
       a =  1.500      CL =  0.8029
      Cm = -0.0786     CD =  0.01072   =>   CDf =  0.00664    CDp =  0.00409

 Side 1  free  transition at x/c =  0.2845   40
 Side 2  free  transition at x/c =  0.8332   67

 116   rms: 0.6336E+01   max: -.1115E+03   C at   67  2   RLX: 0.004
       a =  1.500      CL =  0.8037
      Cm = -0.0787     CD =  0.01070   =>   CDf =  0.00660    CDp =  0.00410

 Side 1  free  transition at x/c =  0.2845   40
 Side 2  free  transition at x/c =  0.8513   68

 117   rms: 0.4816E+02   max: -.8449E+03   C at   68  2   RLX: 0.001
       a =  1.500      CL =  0.8045
      Cm = -0.0789     CD =  0.01068   =>   CDf =  0.00656    CDp =  0.00412

 Side 1  free  transition at x/c =  0.2844   40
 Side 2  free  transition at x/c =  0.8675   69

 118   rms: 0.2847E+01   max: 0.4912E+02   C at   69  2   RLX: 0.031
       a =  1.500      CL =  0.8004
      Cm = -0.0779     CD =  0.01069   =>   CDf =  0.00652    CDp =  0.00417

 Side 1  free  transition at x/c =  0.2846   40
 Side 2  free  transition at x/c =  0.8323   67

 119   rms: 0.9206E+01   max: -.1627E+03   C at   67  2   RLX: 0.003
       a =  1.500      CL =  0.8008
      Cm = -0.0778     CD =  0.01071   =>   CDf =  0.00660    CDp =  0.00411

 Side 1  free  transition at x/c =  0.2845   40
 Side 2  free  transition at x/c =  0.8505   68

 120   rms: 0.1284E+02   max: 0.2258E+03   C at   68  2   RLX: 0.007
       a =  1.500      CL =  0.7977
      Cm = -0.0771     CD =  0.01075   =>   CDf =  0.00656    CDp =  0.00419

 Side 1  free  transition at x/c =  0.2847   40
 Side 2  free  transition at x/c =  0.8090   65

 121   rms: 0.5105E+01   max: -.8440E+02   C at   65  2   RLX: 0.006
       a =  1.500      CL =  0.7983
      Cm = -0.0770     CD =  0.01073   =>   CDf =  0.00666    CDp =  0.00408

 Side 1  free  transition at x/c =  0.2846   40
 Side 2  free  transition at x/c =  0.8254   66

 122   rms: 0.6841E+01   max: -.1141E+03   C at   66  2   RLX: 0.004
       a =  1.500      CL =  0.7991
      Cm = -0.0772     CD =  0.01071   =>   CDf =  0.00662    CDp =  0.00409

 Side 1  free  transition at x/c =  0.2846   40
 Side 2  free  transition at x/c =  0.8422   67

 123   rms: 0.2738E+02   max: -.4586E+03   C at   67  2   RLX: 0.001
       a =  1.500      CL =  0.8000
      Cm = -0.0774     CD =  0.01069   =>   CDf =  0.00658    CDp =  0.00411

 Side 1  free  transition at x/c =  0.2845   40
 Side 2  free  transition at x/c =  0.8587   68

 124   rms: 0.4603E+01   max: 0.7647E+02   C at   68  2   RLX: 0.020
       a =  1.500      CL =  0.7965
      Cm = -0.0766     CD =  0.01071   =>   CDf =  0.00654    CDp =  0.00418

 Side 1  free  transition at x/c =  0.2847   40
 Side 2  free  transition at x/c =  0.8208   66

 125   rms: 0.6117E+01   max: -.1046E+03   C at   66  2   RLX: 0.005
       a =  1.500      CL =  0.7971
      Cm = -0.0765     CD =  0.01071   =>   CDf =  0.00663    CDp =  0.00408

 Side 1  free  transition at x/c =  0.2846   40
 Side 2  free  transition at x/c =  0.8382   67

 126   rms: 0.1686E+02   max: -.2892E+03   C at   67  2   RLX: 0.002
       a =  1.500      CL =  0.7979
      Cm = -0.0767     CD =  0.01069   =>   CDf =  0.00659    CDp =  0.00410

 Side 1  free  transition at x/c =  0.2846   40
 Side 2  free  transition at x/c =  0.8549   68

 127   rms: 0.5324E+01   max: 0.9067E+02   C at   68  2   RLX: 0.017
       a =  1.500      CL =  0.7948
      Cm = -0.0760     CD =  0.01072   =>   CDf =  0.00655    CDp =  0.00418

 Side 1  free  transition at x/c =  0.2847   40
 Side 2  free  transition at x/c =  0.8180   66

 128   rms: 0.5949E+01   max: -.1033E+03   C at   66  2   RLX: 0.005
       a =  1.500      CL =  0.7954
      Cm = -0.0760     CD =  0.01071   =>   CDf =  0.00664    CDp =  0.00407

 Side 1  free  transition at x/c =  0.2846   40
 Side 2  free  transition at x/c =  0.8357   67

 129   rms: 0.1807E+02   max: -.3143E+03   C at   67  2   RLX: 0.002
       a =  1.500      CL =  0.7963
      Cm = -0.0762     CD =  0.01069   =>   CDf =  0.00659    CDp =  0.00409

 Side 1  free  transition at x/c =  0.2846   40
 Side 2  free  transition at x/c =  0.8525   68

 130   rms: 0.4778E+01   max: 0.8253E+02   C at   68  2   RLX: 0.018
       a =  1.500      CL =  0.7931
      Cm = -0.0755     CD =  0.01073   =>   CDf =  0.00655    CDp =  0.00418

 Side 1  free  transition at x/c =  0.2847   40
 Side 2  free  transition at x/c =  0.8167   66

 131   rms: 0.6083E+01   max: -.1064E+03   C at   66  2   RLX: 0.005
       a =  1.500      CL =  0.7938
      Cm = -0.0754     CD =  0.01071   =>   CDf =  0.00664    CDp =  0.00407

 Side 1  free  transition at x/c =  0.2847   40
 Side 2  free  transition at x/c =  0.8347   67

 132   rms: 0.2100E+02   max: -.3674E+03   C at   67  2   RLX: 0.001
       a =  1.500      CL =  0.7946
      Cm = -0.0756     CD =  0.01069   =>   CDf =  0.00660    CDp =  0.00409

 Side 1  free  transition at x/c =  0.2846   40
 Side 2  free  transition at x/c =  0.8514   68

 133   rms: 0.3874E+01   max: 0.6728E+02   C at   68  2   RLX: 0.022
       a =  1.500      CL =  0.7915
      Cm = -0.0749     CD =  0.01073   =>   CDf =  0.00656    CDp =  0.00417

 Side 1  free  transition at x/c =  0.2848   40
 Side 2  free  transition at x/c =  0.8169   66

 134   rms: 0.6568E+01   max: -.1148E+03   C at   66  2   RLX: 0.004
       a =  1.500      CL =  0.7921
      Cm = -0.0749     CD =  0.01071   =>   CDf =  0.00664    CDp =  0.00407

 Side 1  free  transition at x/c =  0.2847   40
 Side 2  free  transition at x/c =  0.8349   67

 135   rms: 0.3925E+02   max: -.6860E+03   C at   67  2   RLX: 0.001
       a =  1.500      CL =  0.7930
      Cm = -0.0751     CD =  0.01069   =>   CDf =  0.00660    CDp =  0.00409

 Side 1  free  transition at x/c =  0.2846   40
 Side 2  free  transition at x/c =  0.8515   68

 136   rms: 0.2981E+01   max: 0.5163E+02   C at   68  2   RLX: 0.029
       a =  1.500      CL =  0.7896
      Cm = -0.0743     CD =  0.01073   =>   CDf =  0.00655    CDp =  0.00417

 Side 1  free  transition at x/c =  0.2848   40
 Side 2  free  transition at x/c =  0.8181   66

 137   rms: 0.7314E+01   max: -.1271E+03   C at   66  2   RLX: 0.004
       a =  1.500      CL =  0.7903
      Cm = -0.0743     CD =  0.01071   =>   CDf =  0.00664    CDp =  0.00407

 Side 1  free  transition at x/c =  0.2847   40
 Side 2  free  transition at x/c =  0.8360   67

 138   rms: 0.7539E+02   max: 0.1309E+04   C at   67  2   RLX: 0.001
       a =  1.500      CL =  0.7875
      Cm = -0.0737     CD =  0.01078   =>   CDf =  0.00659    CDp =  0.00418

 Side 1  free  transition at x/c =  0.2849   40
 Side 2  free  transition at x/c =  0.7950   65

 139   rms: 0.4738E+01   max: -.8469E+02   C at   65  2   RLX: 0.006
       a =  1.500      CL =  0.7885
      Cm = -0.0738     CD =  0.01075   =>   CDf =  0.00669    CDp =  0.00406

 Side 1  free  transition at x/c =  0.2848   40
 Side 2  free  transition at x/c =  0.8131   66

 140   rms: 0.6537E+01   max: -.1167E+03   C at   66  2   RLX: 0.004
       a =  1.500      CL =  0.7895
      Cm = -0.0740     CD =  0.01072   =>   CDf =  0.00665    CDp =  0.00407

 Side 1  free  transition at x/c =  0.2847   40
 Side 2  free  transition at x/c =  0.8312   67

 141   rms: 0.1994E+03   max: 0.3555E+04   C at   67  2   RLX: 0.000
       a =  1.500      CL =  0.7867
      Cm = -0.0735     CD =  0.01079   =>   CDf =  0.00660    CDp =  0.00419

 Side 1  free  transition at x/c =  0.2849   40
 Side 2  free  transition at x/c =  0.7918   64

 142   rms: 0.4883E+01   max: -.8087E+02   C at   64  2   RLX: 0.006
       a =  1.500      CL =  0.7876
      Cm = -0.0736     CD =  0.01076   =>   CDf =  0.00670    CDp =  0.00406

 Side 1  free  transition at x/c =  0.2848   40
 Side 2  free  transition at x/c =  0.8074   65

 143   rms: 0.6204E+01   max: -.1039E+03   C at   65  2   RLX: 0.005
       a =  1.500      CL =  0.7886
      Cm = -0.0738     CD =  0.01073   =>   CDf =  0.00666    CDp =  0.00407

 Side 1  free  transition at x/c =  0.2848   40
 Side 2  free  transition at x/c =  0.8240   66

 144   rms: 0.1440E+02   max: -.2424E+03   C at   66  2   RLX: 0.002
       a =  1.500      CL =  0.7895
      Cm = -0.0740     CD =  0.01071   =>   CDf =  0.00662    CDp =  0.00409

 Side 1  free  transition at x/c =  0.2847   40
 Side 2  free  transition at x/c =  0.8403   67

 145   rms: 0.6248E+01   max: 0.1047E+03   C at   67  2   RLX: 0.014
       a =  1.500      CL =  0.7866
      Cm = -0.0733     CD =  0.01076   =>   CDf =  0.00658    CDp =  0.00418

 Side 1  free  transition at x/c =  0.2849   40
 Side 2  free  transition at x/c =  0.8043   65

 146   rms: 0.5656E+01   max: -.9639E+02   C at   65  2   RLX: 0.005
       a =  1.500      CL =  0.7874
      Cm = -0.0734     CD =  0.01074   =>   CDf =  0.00667    CDp =  0.00407

 Side 1  free  transition at x/c =  0.2848   40
 Side 2  free  transition at x/c =  0.8214   66

 147   rms: 0.1201E+02   max: -.2053E+03   C at   66  2   RLX: 0.002
       a =  1.500      CL =  0.7883
      Cm = -0.0736     CD =  0.01071   =>   CDf =  0.00663    CDp =  0.00409

 Side 1  free  transition at x/c =  0.2847   40
 Side 2  free  transition at x/c =  0.8378   67

 148   rms: 0.6951E+01   max: 0.1182E+03   C at   67  2   RLX: 0.013
       a =  1.500      CL =  0.7855
      Cm = -0.0730     CD =  0.01077   =>   CDf =  0.00658    CDp =  0.00418

 Side 1  free  transition at x/c =  0.2849   40
 Side 2  free  transition at x/c =  0.8028   65

 149   rms: 0.5455E+01   max: -.9377E+02   C at   65  2   RLX: 0.005
       a =  1.500      CL =  0.7863
      Cm = -0.0731     CD =  0.01074   =>   CDf =  0.00667    CDp =  0.00407

 Side 1  free  transition at x/c =  0.2848   40
 Side 2  free  transition at x/c =  0.8201   66

 150   rms: 0.1189E+02   max: -.2047E+03   C at   66  2   RLX: 0.002
       a =  1.500      CL =  0.7872
      Cm = -0.0733     CD =  0.01071   =>   CDf =  0.00663    CDp =  0.00408

 Side 1  free  transition at x/c =  0.2847   40
 Side 2  free  transition at x/c =  0.8365   67

 151   rms: 0.6376E+01   max: 0.1092E+03   C at   67  2   RLX: 0.014
       a =  1.500      CL =  0.7844
      Cm = -0.0726     CD =  0.01077   =>   CDf =  0.00659    CDp =  0.00418

 Side 1  free  transition at x/c =  0.2849   40
 Side 2  free  transition at x/c =  0.8025   65

 152   rms: 0.5464E+01   max: -.9410E+02   C at   65  2   RLX: 0.005
       a =  1.500      CL =  0.7853
      Cm = -0.0727     CD =  0.01074   =>   CDf =  0.00667    CDp =  0.00407

 Side 1  free  transition at x/c =  0.2848   40
 Side 2  free  transition at x/c =  0.8200   66

 153   rms: 0.1301E+02   max: -.2243E+03   C at   66  2   RLX: 0.002
       a =  1.500      CL =  0.7862
      Cm = -0.0729     CD =  0.01071   =>   CDf =  0.00663    CDp =  0.00408

 Side 1  free  transition at x/c =  0.2848   40
 Side 2  free  transition at x/c =  0.8362   67

 154   rms: 0.5350E+01   max: 0.9166E+02   C at   67  2   RLX: 0.016
       a =  1.500      CL =  0.7833
      Cm = -0.0723     CD =  0.01077   =>   CDf =  0.00658    CDp =  0.00418

 Side 1  free  transition at x/c =  0.2849   40
 Side 2  free  transition at x/c =  0.8032   65

 155   rms: 0.5620E+01   max: -.9645E+02   C at   65  2   RLX: 0.005
       a =  1.500      CL =  0.7842
      Cm = -0.0724     CD =  0.01074   =>   CDf =  0.00667    CDp =  0.00407

 Side 1  free  transition at x/c =  0.2848   40
 Side 2  free  transition at x/c =  0.8207   66

 156   rms: 0.1498E+02   max: -.2572E+03   C at   66  2   RLX: 0.002
       a =  1.500      CL =  0.7851
      Cm = -0.0726     CD =  0.01071   =>   CDf =  0.00663    CDp =  0.00409

 Side 1  free  transition at x/c =  0.2848   40
 Side 2  free  transition at x/c =  0.8368   67

 157   rms: 0.4226E+01   max: 0.7195E+02   C at   67  2   RLX: 0.021
       a =  1.500      CL =  0.7822
      Cm = -0.0719     CD =  0.01076   =>   CDf =  0.00658    CDp =  0.00418

 Side 1  free  transition at x/c =  0.2849   40
 Side 2  free  transition at x/c =  0.8049   65

 158   rms: 0.5952E+01   max: -.1013E+03   C at   65  2   RLX: 0.005
       a =  1.500      CL =  0.7830
      Cm = -0.0720     CD =  0.01074   =>   CDf =  0.00667    CDp =  0.00407

 Side 1  free  transition at x/c =  0.2848   40
 Side 2  free  transition at x/c =  0.8223   66

 159   rms: 0.2161E+02   max: -.3676E+03   C at   66  2   RLX: 0.001
       a =  1.500      CL =  0.7839
      Cm = -0.0722     CD =  0.01071   =>   CDf =  0.00662    CDp =  0.00409

 Side 1  free  transition at x/c =  0.2848   40
 Side 2  free  transition at x/c =  0.8381   67

 160   rms: 0.2505E+01   max: 0.4137E+02   C at   67  2   RLX: 0.036
       a =  1.500      CL =  0.7808
      Cm = -0.0715     CD =  0.01075   =>   CDf =  0.00658    CDp =  0.00417

 Side 1  free  transition at x/c =  0.2849   40
 Side 2  free  transition at x/c =  0.8075   65

 161   rms: 0.6560E+01   max: -.1100E+03   C at   65  2   RLX: 0.005
       a =  1.500      CL =  0.7816
      Cm = -0.0716     CD =  0.01073   =>   CDf =  0.00666    CDp =  0.00407

 Side 1  free  transition at x/c =  0.2849   40
 Side 2  free  transition at x/c =  0.8247   66

 162   rms: 0.5633E+02   max: -.9449E+03   C at   66  2   RLX: 0.001
       a =  1.500      CL =  0.7825
      Cm = -0.0718     CD =  0.01071   =>   CDf =  0.00661    CDp =  0.00409

 Side 1  free  transition at x/c =  0.2848   40
 Side 2  free  transition at x/c =  0.8404   67

 163   rms: 0.1881E+01   max: 0.3047E+02   C at   67  2   RLX: 0.049
       a =  1.500      CL =  0.7790
      Cm = -0.0710     CD =  0.01074   =>   CDf =  0.00657    CDp =  0.00417

 Side 1  free  transition at x/c =  0.2849   40
 Side 2  free  transition at x/c =  0.8105   65

 164   rms: 0.6277E+01   max: -.1035E+03   C at   65  2   RLX: 0.005
       a =  1.500      CL =  0.7798
      Cm = -0.0710     CD =  0.01072   =>   CDf =  0.00665    CDp =  0.00408

 Side 1  free  transition at x/c =  0.2849   40
 Side 2  free  transition at x/c =  0.8275   66

 165   rms: 0.1773E+02   max: 0.2880E+03   C at   66  2   RLX: 0.005
       a =  1.500      CL =  0.7770
      Cm = -0.0704     CD =  0.01078   =>   CDf =  0.00660    CDp =  0.00418

 Side 1  free  transition at x/c =  0.2850   40
 Side 2  free  transition at x/c =  0.7885   64

 166   rms: 0.4840E+01   max: -.8184E+02   C at   64  2   RLX: 0.006
       a =  1.500      CL =  0.7780
      Cm = -0.0706     CD =  0.01076   =>   CDf =  0.00670    CDp =  0.00406

 Side 1  free  transition at x/c =  0.2850   40
 Side 2  free  transition at x/c =  0.8047   65

 167   rms: 0.5989E+01   max: -.1020E+03   C at   65  2   RLX: 0.005
       a =  1.500      CL =  0.7791
      Cm = -0.0708     CD =  0.01074   =>   CDf =  0.00666    CDp =  0.00407

 Side 1  free  transition at x/c =  0.2849   40
 Side 2  free  transition at x/c =  0.8219   66

 168   rms: 0.3309E+02   max: -.5632E+03   C at   66  2   RLX: 0.001
       a =  1.500      CL =  0.7800
      Cm = -0.0710     CD =  0.01071   =>   CDf =  0.00662    CDp =  0.00409

 Side 1  free  transition at x/c =  0.2848   40
 Side 2  free  transition at x/c =  0.8371   67

 169   rms: 0.1915E+01   max: 0.3163E+02   C at   67  2   RLX: 0.047
       a =  1.500      CL =  0.7767
      Cm = -0.0703     CD =  0.01074   =>   CDf =  0.00657    CDp =  0.00417

 Side 1  free  transition at x/c =  0.2850   40
 Side 2  free  transition at x/c =  0.8079   65

 170   rms: 0.6615E+01   max: -.1107E+03   C at   65  2   RLX: 0.005
       a =  1.500      CL =  0.7775
      Cm = -0.0704     CD =  0.01073   =>   CDf =  0.00665    CDp =  0.00408

 Side 1  free  transition at x/c =  0.2849   40
 Side 2  free  transition at x/c =  0.8249   66

 171   rms: 0.6481E+02   max: -.1083E+04   C at   66  2   RLX: 0.000
       a =  1.500      CL =  0.7784
      Cm = -0.0706     CD =  0.01070   =>   CDf =  0.00661    CDp =  0.00410

 Side 1  free  transition at x/c =  0.2848   40
 Side 2  free  transition at x/c =  0.8400   67

 172   rms: 0.9998E+00   max: 0.1602E+02   C at   67  2   RLX: 0.094
       a =  1.500      CL =  0.7742
      Cm = -0.0696     CD =  0.01071   =>   CDf =  0.00656    CDp =  0.00415

 Side 1  free  transition at x/c =  0.2850   40
 Side 2  free  transition at x/c =  0.8116   65

 173   rms: 0.8565E+01   max: -.1384E+03   C at   65  2   RLX: 0.004
       a =  1.500      CL =  0.7748
      Cm = -0.0696     CD =  0.01072   =>   CDf =  0.00664    CDp =  0.00408

 Side 1  free  transition at x/c =  0.2849   40
 Side 2  free  transition at x/c =  0.8282   66

 174   rms: 0.1209E+02   max: 0.1951E+03   C at   66  2   RLX: 0.008
       a =  1.500      CL =  0.7720
      Cm = -0.0690     CD =  0.01078   =>   CDf =  0.00659    CDp =  0.00418

 Side 1  free  transition at x/c =  0.2851   40
 Side 2  free  transition at x/c =  0.7899   64

 175   rms: 0.4963E+01   max: -.8326E+02   C at   64  2   RLX: 0.006
       a =  1.500      CL =  0.7731
      Cm = -0.0692     CD =  0.01076   =>   CDf =  0.00669    CDp =  0.00406

 Side 1  free  transition at x/c =  0.2850   40
 Side 2  free  transition at x/c =  0.8061   65

 176   rms: 0.6107E+01   max: -.1032E+03   C at   65  2   RLX: 0.005
       a =  1.500      CL =  0.7741
      Cm = -0.0694     CD =  0.01073   =>   CDf =  0.00665    CDp =  0.00408

 Side 1  free  transition at x/c =  0.2849   40
 Side 2  free  transition at x/c =  0.8229   66

 177   rms: 0.3025E+02   max: -.5104E+03   C at   66  2   RLX: 0.001
       a =  1.500      CL =  0.7750
      Cm = -0.0696     CD =  0.01071   =>   CDf =  0.00661    CDp =  0.00410

 Side 1  free  transition at x/c =  0.2849   40
 Side 2  free  transition at x/c =  0.8378   67

 178   rms: 0.9950E+00   max: 0.1618E+02   C at   67  2   RLX: 0.093
       a =  1.500      CL =  0.7711
      Cm = -0.0688     CD =  0.01072   =>   CDf =  0.00656    CDp =  0.00416

 Side 1  free  transition at x/c =  0.2850   40
 Side 2  free  transition at x/c =  0.8093   65

 179   rms: 0.5715E+01   max: -.9471E+02   C at   65  2   RLX: 0.005
       a =  1.500      CL =  0.7718
      Cm = -0.0688     CD =  0.01072   =>   CDf =  0.00664    CDp =  0.00409

 Side 1  free  transition at x/c =  0.2850   40
 Side 2  free  transition at x/c =  0.8260   66

 180   rms: 0.1619E+02   max: 0.2640E+03   C at   66  2   RLX: 0.006
       a =  1.500      CL =  0.7691
      Cm = -0.0682     CD =  0.01078   =>   CDf =  0.00659    CDp =  0.00419

 Side 1  free  transition at x/c =  0.2851   40
 Side 2  free  transition at x/c =  0.7885   64

 181   rms: 0.4681E+01   max: -.7918E+02   C at   64  2   RLX: 0.006
       a =  1.500      CL =  0.7702
      Cm = -0.0684     CD =  0.01076   =>   CDf =  0.00669    CDp =  0.00407

 Side 1  free  transition at x/c =  0.2850   40
 Side 2  free  transition at x/c =  0.8050   65

 182   rms: 0.5574E+01   max: -.9477E+02   C at   65  2   RLX: 0.005
       a =  1.500      CL =  0.7712
      Cm = -0.0686     CD =  0.01073   =>   CDf =  0.00665    CDp =  0.00408

 Side 1  free  transition at x/c =  0.2850   40
 Side 2  free  transition at x/c =  0.8217   66

 183   rms: 0.1954E+02   max: -.3314E+03   C at   66  2   RLX: 0.002
       a =  1.500      CL =  0.7721
      Cm = -0.0688     CD =  0.01071   =>   CDf =  0.00660    CDp =  0.00410

 Side 1  free  transition at x/c =  0.2849   40
 Side 2  free  transition at x/c =  0.8362   67

 184   rms: 0.1015E+01   max: 0.1667E+02   C at   67  2   RLX: 0.090
       a =  1.500      CL =  0.7685
      Cm = -0.0680     CD =  0.01072   =>   CDf =  0.00656    CDp =  0.00416

 Side 1  free  transition at x/c =  0.2851   40
 Side 2  free  transition at x/c =  0.8079   65

 185   rms: 0.5127E+01   max: -.8561E+02   C at   65  2   RLX: 0.006
       a =  1.500      CL =  0.7693
      Cm = -0.0681     CD =  0.01072   =>   CDf =  0.00664    CDp =  0.00409

 Side 1  free  transition at x/c =  0.2850   40
 Side 2  free  transition at x/c =  0.8245   66

 186   rms: 0.2544E+02   max: 0.4175E+03   C at   66  2   RLX: 0.004
       a =  1.500      CL =  0.7665
      Cm = -0.0675     CD =  0.01078   =>   CDf =  0.00659    CDp =  0.00419

 Side 1  free  transition at x/c =  0.2851   40
 Side 2  free  transition at x/c =  0.7879   64

 187   rms: 0.4444E+01   max: -.7545E+02   C at   64  2   RLX: 0.007
       a =  1.500      CL =  0.7676
      Cm = -0.0677     CD =  0.01076   =>   CDf =  0.00669    CDp =  0.00407

 Side 1  free  transition at x/c =  0.2851   40
 Side 2  free  transition at x/c =  0.8045   65

 188   rms: 0.5094E+01   max: -.8685E+02   C at   65  2   RLX: 0.006
       a =  1.500      CL =  0.7687
      Cm = -0.0679     CD =  0.01073   =>   CDf =  0.00664    CDp =  0.00409

 Side 1  free  transition at x/c =  0.2850   40
 Side 2  free  transition at x/c =  0.8211   66

 189   rms: 0.1392E+02   max: -.2365E+03   C at   66  2   RLX: 0.002
       a =  1.500      CL =  0.7696
      Cm = -0.0681     CD =  0.01071   =>   CDf =  0.00660    CDp =  0.00411

 Side 1  free  transition at x/c =  0.2850   40
 Side 2  free  transition at x/c =  0.8351   67

 190   rms: 0.1058E+01   max: 0.1748E+02   C at   67  2   RLX: 0.086
       a =  1.500      CL =  0.7662
      Cm = -0.0674     CD =  0.01072   =>   CDf =  0.00656    CDp =  0.00417

 Side 1  free  transition at x/c =  0.2851   40
 Side 2  free  transition at x/c =  0.8072   65

 191   rms: 0.4629E+01   max: -.7760E+02   C at   65  2   RLX: 0.006
       a =  1.500      CL =  0.7670
      Cm = -0.0675     CD =  0.01072   =>   CDf =  0.00663    CDp =  0.00409

 Side 1  free  transition at x/c =  0.2850   40
 Side 2  free  transition at x/c =  0.8237   66

 192   rms: 0.1800E+02   max: -.3008E+03   C at   66  2   RLX: 0.002
       a =  1.500      CL =  0.7679
      Cm = -0.0677     CD =  0.01070   =>   CDf =  0.00659    CDp =  0.00411

 Side 1  free  transition at x/c =  0.2850   40
 Side 2  free  transition at x/c =  0.8377   67

 193   rms: 0.9322E+00   max: 0.1506E+02   C at   67  2   RLX: 0.100
       a =  1.500      CL =  0.7645
      Cm = -0.0670     CD =  0.01071   =>   CDf =  0.00655    CDp =  0.00417

 Side 1  free  transition at x/c =  0.2851   40
 Side 2  free  transition at x/c =  0.8099   65

 194   rms: 0.4927E+01   max: -.8127E+02   C at   65  2   RLX: 0.006
       a =  1.500      CL =  0.7653
      Cm = -0.0670     CD =  0.01072   =>   CDf =  0.00662    CDp =  0.00409

 Side 1  free  transition at x/c =  0.2850   40
 Side 2  free  transition at x/c =  0.8263   66

 195   rms: 0.2974E+02   max: 0.4819E+03   C at   66  2   RLX: 0.003
       a =  1.500      CL =  0.7626
      Cm = -0.0664     CD =  0.01077   =>   CDf =  0.00658    CDp =  0.00420

 Side 1  free  transition at x/c =  0.2852   40
 Side 2  free  transition at x/c =  0.7902   64

 196   rms: 0.4429E+01   max: -.7415E+02   C at   64  2   RLX: 0.007
       a =  1.500      CL =  0.7637
      Cm = -0.0667     CD =  0.01075   =>   CDf =  0.00667    CDp =  0.00408

 Side 1  free  transition at x/c =  0.2851   40
 Side 2  free  transition at x/c =  0.8066   65

 197   rms: 0.4849E+01   max: -.8161E+02   C at   65  2   RLX: 0.006
       a =  1.500      CL =  0.7647
      Cm = -0.0669     CD =  0.01072   =>   CDf =  0.00663    CDp =  0.00409

 Side 1  free  transition at x/c =  0.2851   40
 Side 2  free  transition at x/c =  0.8230   66

 198   rms: 0.1327E+02   max: -.2225E+03   C at   66  2   RLX: 0.002
       a =  1.500      CL =  0.7656
      Cm = -0.0671     CD =  0.01070   =>   CDf =  0.00659    CDp =  0.00411

 Side 1  free  transition at x/c =  0.2850   40
 Side 2  free  transition at x/c =  0.8367   67

 199   rms: 0.1115E+01   max: 0.1819E+02   C at   67  2   RLX: 0.082
       a =  1.500      CL =  0.7626
      Cm = -0.0665     CD =  0.01072   =>   CDf =  0.00654    CDp =  0.00418

 Side 1  free  transition at x/c =  0.2851   40
 Side 2  free  transition at x/c =  0.8089   65

 200   rms: 0.4375E+01   max: -.7254E+02   C at   65  2   RLX: 0.007
       a =  1.500      CL =  0.7635
      Cm = -0.0666     CD =  0.01072   =>   CDf =  0.00662    CDp =  0.00410

 Side 1  free  transition at x/c =  0.2851   40
 Side 2  free  transition at x/c =  0.8252   66

 201   rms: 0.1768E+03   max: -.2878E+04   C at   66  2   RLX: 0.000
       a =  1.500      CL =  0.7643
      Cm = -0.0667     CD =  0.01070   =>   CDf =  0.00658    CDp =  0.00412

 Side 1  free  transition at x/c =  0.2850   40
 Side 2  free  transition at x/c =  0.8390   67

 202   rms: 0.1045E+01   max: 0.1676E+02   C at   67  2   RLX: 0.089
       a =  1.500      CL =  0.7613
      Cm = -0.0661     CD =  0.01071   =>   CDf =  0.00653    CDp =  0.00418

 Side 1  free  transition at x/c =  0.2851   40
 Side 2  free  transition at x/c =  0.8110   65

 203   rms: 0.5450E+01   max: -.8801E+02   C at   65  2   RLX: 0.006
       a =  1.500      CL =  0.7622
      Cm = -0.0662     CD =  0.01071   =>   CDf =  0.00661    CDp =  0.00410

 Side 1  free  transition at x/c =  0.2851   40
 Side 2  free  transition at x/c =  0.8271   66

 204   rms: 0.2132E+03   max: -.3434E+04   C at   66  2   RLX: 0.000
       a =  1.500      CL =  0.7630
      Cm = -0.0664     CD =  0.01069   =>   CDf =  0.00657    CDp =  0.00412

 Side 1  free  transition at x/c =  0.2850   40
 Side 2  free  transition at x/c =  0.8411   67

 205   rms: 0.1044E+01   max: 0.1654E+02   C at   67  2   RLX: 0.091
       a =  1.500      CL =  0.7602
      Cm = -0.0658     CD =  0.01071   =>   CDf =  0.00653    CDp =  0.00418

 Side 1  free  transition at x/c =  0.2851   40
 Side 2  free  transition at x/c =  0.8126   66

 206   rms: 0.4829E+01   max: -.8614E+02   C at   66  2   RLX: 0.006
       a =  1.500      CL =  0.7610
      Cm = -0.0659     CD =  0.01071   =>   CDf =  0.00661    CDp =  0.00410

 Side 1  free  transition at x/c =  0.2851   40
 Side 2  free  transition at x/c =  0.8282   66

 207   rms: 0.7320E+02   max: -.1172E+04   C at   66  2   RLX: 0.000
       a =  1.500      CL =  0.7619
      Cm = -0.0661     CD =  0.01069   =>   CDf =  0.00657    CDp =  0.00412

 Side 1  free  transition at x/c =  0.2850   40
 Side 2  free  transition at x/c =  0.8424   67

 208   rms: 0.1158E+01   max: 0.1826E+02   C at   67  2   RLX: 0.082
       a =  1.500      CL =  0.7592
      Cm = -0.0655     CD =  0.01071   =>   CDf =  0.00652    CDp =  0.00419

 Side 1  free  transition at x/c =  0.2852   40
 Side 2  free  transition at x/c =  0.8131   66

 209   rms: 0.5098E+01   max: -.9063E+02   C at   66  2   RLX: 0.006
       a =  1.500      CL =  0.7601
      Cm = -0.0656     CD =  0.01070   =>   CDf =  0.00660    CDp =  0.00410

 Side 1  free  transition at x/c =  0.2851   40
 Side 2  free  transition at x/c =  0.8289   66

 210   rms: 0.4059E+02   max: -.6478E+03   C at   66  2   RLX: 0.001
       a =  1.500      CL =  0.7610
      Cm = -0.0658     CD =  0.01068   =>   CDf =  0.00656    CDp =  0.00412

 Side 1  free  transition at x/c =  0.2850   40
 Side 2  free  transition at x/c =  0.8433   67

 211   rms: 0.1292E+01   max: 0.2033E+02   C at   67  2   RLX: 0.074
       a =  1.500      CL =  0.7584
      Cm = -0.0653     CD =  0.01071   =>   CDf =  0.00652    CDp =  0.00419

 Side 1  free  transition at x/c =  0.2852   40
 Side 2  free  transition at x/c =  0.8134   66

 212   rms: 0.4975E+01   max: -.8825E+02   C at   66  2   RLX: 0.006
       a =  1.500      CL =  0.7593
      Cm = -0.0654     CD =  0.01070   =>   CDf =  0.00660    CDp =  0.00410

 Side 1  free  transition at x/c =  0.2851   40
 Side 2  free  transition at x/c =  0.8294   66

 213   rms: 0.2905E+02   max: -.4626E+03   C at   66  2   RLX: 0.001
       a =  1.500      CL =  0.7602
      Cm = -0.0656     CD =  0.01068   =>   CDf =  0.00656    CDp =  0.00412

 Side 1  free  transition at x/c =  0.2851   40
 Side 2  free  transition at x/c =  0.8440   67

 214   rms: 0.1459E+01   max: 0.2295E+02   C at   67  2   RLX: 0.065
       a =  1.500      CL =  0.7576
      Cm = -0.0651     CD =  0.01071   =>   CDf =  0.00652    CDp =  0.00419

 Side 1  free  transition at x/c =  0.2852   40
 Side 2  free  transition at x/c =  0.8134   66

 215   rms: 0.4796E+01   max: -.8504E+02   C at   66  2   RLX: 0.006
       a =  1.500      CL =  0.7586
      Cm = -0.0652     CD =  0.01070   =>   CDf =  0.00660    CDp =  0.00410

 Side 1  free  transition at x/c =  0.2851   40
 Side 2  free  transition at x/c =  0.8295   66

 216   rms: 0.2077E+02   max: -.3306E+03   C at   66  2   RLX: 0.002
       a =  1.500      CL =  0.7595
      Cm = -0.0654     CD =  0.01068   =>   CDf =  0.00656    CDp =  0.00412

 Side 1  free  transition at x/c =  0.2851   40
 Side 2  free  transition at x/c =  0.8443   67

 217   rms: 0.1629E+01   max: 0.2563E+02   C at   67  2   RLX: 0.059
       a =  1.500      CL =  0.7570
      Cm = -0.0649     CD =  0.01071   =>   CDf =  0.00652    CDp =  0.00420

 Side 1  free  transition at x/c =  0.2852   40
 Side 2  free  transition at x/c =  0.8132   66

 218   rms: 0.4651E+01   max: -.8249E+02   C at   66  2   RLX: 0.006
       a =  1.500      CL =  0.7579
      Cm = -0.0651     CD =  0.01070   =>   CDf =  0.00660    CDp =  0.00410

 Side 1  free  transition at x/c =  0.2851   40
 Side 2  free  transition at x/c =  0.8295   66

 219   rms: 0.1590E+02   max: -.2532E+03   C at   66  2   RLX: 0.002
       a =  1.500      CL =  0.7588
      Cm = -0.0653     CD =  0.01068   =>   CDf =  0.00656    CDp =  0.00412

 Side 1  free  transition at x/c =  0.2851   40
 Side 2  free  transition at x/c =  0.8445   67

 220   rms: 0.1820E+01   max: 0.2868E+02   C at   67  2   RLX: 0.052
       a =  1.500      CL =  0.7563
      Cm = -0.0647     CD =  0.01072   =>   CDf =  0.00652    CDp =  0.00420

 Side 1  free  transition at x/c =  0.2852   40
 Side 2  free  transition at x/c =  0.8129   66

 221   rms: 0.4406E+01   max: -.7823E+02   C at   66  2   RLX: 0.006
       a =  1.500      CL =  0.7573
      Cm = -0.0649     CD =  0.01070   =>   CDf =  0.00660    CDp =  0.00410

 Side 1  free  transition at x/c =  0.2851   40
 Side 2  free  transition at x/c =  0.8295   66

 222   rms: 0.1261E+02   max: -.2010E+03   C at   66  2   RLX: 0.002
       a =  1.500      CL =  0.7582
      Cm = -0.0651     CD =  0.01068   =>   CDf =  0.00656    CDp =  0.00412

 Side 1  free  transition at x/c =  0.2851   40
 Side 2  free  transition at x/c =  0.8445   67

 223   rms: 0.2039E+01   max: 0.3220E+02   C at   67  2   RLX: 0.047
       a =  1.500      CL =  0.7557
      Cm = -0.0646     CD =  0.01072   =>   CDf =  0.00652    CDp =  0.00420

 Side 1  free  transition at x/c =  0.2852   40
 Side 2  free  transition at x/c =  0.8125   66

 224   rms: 0.4141E+01   max: -.7364E+02   C at   66  2   RLX: 0.007
       a =  1.500      CL =  0.7567
      Cm = -0.0647     CD =  0.01070   =>   CDf =  0.00660    CDp =  0.00410

 Side 1  free  transition at x/c =  0.2851   40
 Side 2  free  transition at x/c =  0.8292   66

 225   rms: 0.1024E+02   max: -.1635E+03   C at   66  2   RLX: 0.003
       a =  1.500      CL =  0.7577
      Cm = -0.0649     CD =  0.01068   =>   CDf =  0.00656    CDp =  0.00412

 Side 1  free  transition at x/c =  0.2851   40
 Side 2  free  transition at x/c =  0.8444   67

 226   rms: 0.2293E+01   max: 0.3627E+02   C at   67  2   RLX: 0.041
       a =  1.500      CL =  0.7551
      Cm = -0.0644     CD =  0.01072   =>   CDf =  0.00652    CDp =  0.00420

 Side 1  free  transition at x/c =  0.2852   40
 Side 2  free  transition at x/c =  0.8121   66

 227   rms: 0.3683E+01   max: -.6552E+02   C at   66  2   RLX: 0.008
       a =  1.500      CL =  0.7562
      Cm = -0.0646     CD =  0.01070   =>   CDf =  0.00660    CDp =  0.00410

 Side 1  free  transition at x/c =  0.2851   40
 Side 2  free  transition at x/c =  0.8290   66

 228   rms: 0.8499E+01   max: -.1358E+03   C at   66  2   RLX: 0.004
       a =  1.500      CL =  0.7571
      Cm = -0.0648     CD =  0.01068   =>   CDf =  0.00656    CDp =  0.00412

 Side 1  free  transition at x/c =  0.2851   40
 Side 2  free  transition at x/c =  0.8443   67

 229   rms: 0.2592E+01   max: 0.4109E+02   C at   67  2   RLX: 0.037
       a =  1.500      CL =  0.7545
      Cm = -0.0642     CD =  0.01072   =>   CDf =  0.00652    CDp =  0.00420

 Side 1  free  transition at x/c =  0.2852   40
 Side 2  free  transition at x/c =  0.8117   65

 230   rms: 0.4161E+01   max: -.6649E+02   C at   65  2   RLX: 0.008
       a =  1.500      CL =  0.7555
      Cm = -0.0643     CD =  0.01070   =>   CDf =  0.00660    CDp =  0.00410

 Side 1  free  transition at x/c =  0.2852   40
 Side 2  free  transition at x/c =  0.8278   66

 231   rms: 0.6748E+01   max: -.1085E+03   C at   66  2   RLX: 0.005
       a =  1.500      CL =  0.7565
      Cm = -0.0646     CD =  0.01068   =>   CDf =  0.00656    CDp =  0.00412

 Side 1  free  transition at x/c =  0.2851   40
 Side 2  free  transition at x/c =  0.8432   67

 232   rms: 0.3219E+01   max: 0.5145E+02   C at   67  2   RLX: 0.029
       a =  1.500      CL =  0.7538
      Cm = -0.0639     CD =  0.01073   =>   CDf =  0.00652    CDp =  0.00420

 Side 1  free  transition at x/c =  0.2852   40
 Side 2  free  transition at x/c =  0.8104   65

 233   rms: 0.3762E+01   max: -.6052E+02   C at   65  2   RLX: 0.008
       a =  1.500      CL =  0.7548
      Cm = -0.0641     CD =  0.01070   =>   CDf =  0.00660    CDp =  0.00410

 Side 1  free  transition at x/c =  0.2852   40
 Side 2  free  transition at x/c =  0.8265   66

 234   rms: 0.5399E+01   max: -.8743E+02   C at   66  2   RLX: 0.006
       a =  1.500      CL =  0.7558
      Cm = -0.0643     CD =  0.01068   =>   CDf =  0.00656    CDp =  0.00412

 Side 1  free  transition at x/c =  0.2851   40
 Side 2  free  transition at x/c =  0.8421   67

 235   rms: 0.4251E+01   max: 0.6850E+02   C at   67  2   RLX: 0.022
       a =  1.500      CL =  0.7530
      Cm = -0.0637     CD =  0.01073   =>   CDf =  0.00653    CDp =  0.00420

 Side 1  free  transition at x/c =  0.2853   40
 Side 2  free  transition at x/c =  0.8090   65

 236   rms: 0.3057E+01   max: -.5022E+02   C at   65  2   RLX: 0.010
       a =  1.500      CL =  0.7540
      Cm = -0.0639     CD =  0.01071   =>   CDf =  0.00661    CDp =  0.00410

 Side 1  free  transition at x/c =  0.2852   40
 Side 2  free  transition at x/c =  0.8253   66

 237   rms: 0.4336E+01   max: -.7060E+02   C at   66  2   RLX: 0.007
       a =  1.500      CL =  0.7551
      Cm = -0.0641     CD =  0.01068   =>   CDf =  0.00657    CDp =  0.00412

 Side 1  free  transition at x/c =  0.2851   40
 Side 2  free  transition at x/c =  0.8408   67

 238   rms: 0.6599E+01   max: 0.1071E+03   C at   67  2   RLX: 0.014
       a =  1.500      CL =  0.7521
      Cm = -0.0634     CD =  0.01073   =>   CDf =  0.00653    CDp =  0.00420

 Side 1  free  transition at x/c =  0.2853   40
 Side 2  free  transition at x/c =  0.8077   65

 239   rms: 0.2673E+01   max: -.4419E+02   C at   65  2   RLX: 0.011
       a =  1.500      CL =  0.7532
      Cm = -0.0635     CD =  0.01071   =>   CDf =  0.00661    CDp =  0.00409

 Side 1  free  transition at x/c =  0.2852   40
 Side 2  free  transition at x/c =  0.8241   66

 240   rms: 0.2964E+01   max: -.4920E+02   C at   66  2   RLX: 0.010
       a =  1.500      CL =  0.7543
      Cm = -0.0638     CD =  0.01068   =>   CDf =  0.00657    CDp =  0.00411

 Side 1  free  transition at x/c =  0.2852   40
 Side 2  free  transition at x/c =  0.8396   67

 241   rms: 0.1695E+02   max: 0.2767E+03   C at   67  2   RLX: 0.005
       a =  1.500      CL =  0.7511
      Cm = -0.0630     CD =  0.01074   =>   CDf =  0.00654    CDp =  0.00420

 Side 1  free  transition at x/c =  0.2853   40
 Side 2  free  transition at x/c =  0.8068   65

 242   rms: 0.2298E+01   max: -.3813E+02   C at   65  2   RLX: 0.013
       a =  1.500      CL =  0.7522
      Cm = -0.0631     CD =  0.01071   =>   CDf =  0.00662    CDp =  0.00409

 Side 1  free  transition at x/c =  0.2852   40
 Side 2  free  transition at x/c =  0.8233   66

 243   rms: 0.2435E+01   max: -.4051E+02   C at   66  2   RLX: 0.012
       a =  1.500      CL =  0.7534
      Cm = -0.0634     CD =  0.01069   =>   CDf =  0.00658    CDp =  0.00410

 Side 1  free  transition at x/c =  0.2852   40
 Side 2  free  transition at x/c =  0.8388   67

 244   rms: 0.2690E+02   max: -.4406E+03   C at   67  2   RLX: 0.001
       a =  1.500      CL =  0.7542
      Cm = -0.0635     CD =  0.01066   =>   CDf =  0.00655    CDp =  0.00411

 Side 1  free  transition at x/c =  0.2851   40
[...]
      Cm =  0.0800     CD =  0.00956   =>   CDf =  0.00733    CDp =  0.00222

 Side 1  free  transition at x/c =  0.2877   39
 Side 2  free  transition at x/c =  0.8526   69

 236   rms: 0.3440E+02   max: -.5710E+03   C at   69  2   RLX: 0.001
       a =  3.000      CL =  0.4049
      Cm =  0.0804     CD =  0.00956   =>   CDf =  0.00728    CDp =  0.00228

 Side 1  free  transition at x/c =  0.2877   39
 Side 2  free  transition at x/c =  0.8659   70

 237   rms: 0.5717E+02   max: -.9853E+03   C at   70  2   RLX: 0.001
       a =  3.000      CL =  0.4053
      Cm =  0.0803     CD =  0.00955   =>   CDf =  0.00730    CDp =  0.00225

 Side 1  free  transition at x/c =  0.2877   39
 Side 2  free  transition at x/c =  0.8752   70

 238   rms: 0.2640E+03   max: 0.4260E+04   C at   70  2   RLX: 0.000
       a =  3.000      CL =  0.4033
      Cm =  0.0812     CD =  0.00956   =>   CDf =  0.00734    CDp =  0.00221

 Side 1  free  transition at x/c =  0.2877   39
 Side 2  free  transition at x/c =  0.8508   69

 239   rms: 0.3124E+02   max: -.5242E+03   C at   69  2   RLX: 0.001
       a =  3.000      CL =  0.4028
      Cm =  0.0817     CD =  0.00956   =>   CDf =  0.00729    CDp =  0.00227

 Side 1  free  transition at x/c =  0.2877   39
 Side 2  free  transition at x/c =  0.8641   69

 240   rms: 0.4565E+02   max: -.7077E+03   C at   69  2   RLX: 0.001
       a =  3.000      CL =  0.4032
      Cm =  0.0816     CD =  0.00956   =>   CDf =  0.00732    CDp =  0.00224

 Side 1  free  transition at x/c =  0.2877   39
 Side 2  free  transition at x/c =  0.8767   70

 241   rms: 0.2655E+03   max: 0.4249E+04   C at   70  2   RLX: 0.000
       a =  3.000      CL =  0.4008
      Cm =  0.0827     CD =  0.00956   =>   CDf =  0.00735    CDp =  0.00221

 Side 1  free  transition at x/c =  0.2878   39
 Side 2  free  transition at x/c =  0.8523   69

 242   rms: 0.2934E+02   max: -.4880E+03   C at   69  2   RLX: 0.001
       a =  3.000      CL =  0.4004
      Cm =  0.0832     CD =  0.00956   =>   CDf =  0.00730    CDp =  0.00226

 Side 1  free  transition at x/c =  0.2877   39
 Side 2  free  transition at x/c =  0.8654   70

 243   rms: 0.4027E+02   max: -.6969E+03   C at   70  2   RLX: 0.001
       a =  3.000      CL =  0.4008
      Cm =  0.0831     CD =  0.00955   =>   CDf =  0.00732    CDp =  0.00224

 Side 1  free  transition at x/c =  0.2877   39
 Side 2  free  transition at x/c =  0.8749   70

 244   rms: 0.2078E+03   max: -.3367E+04   C at   70  2   RLX: 0.000
       a =  3.000      CL =  0.4012
      Cm =  0.0830     CD =  0.00955   =>   CDf =  0.00736    CDp =  0.00219

 Side 1  free  transition at x/c =  0.2877   39
 Side 2  free  transition at x/c =  0.8833   71

 245   rms: 0.2092E+02   max: 0.3540E+03   C at   71  2   RLX: 0.004
       a =  3.000      CL =  0.3994
      Cm =  0.0836     CD =  0.00956   =>   CDf =  0.00742    CDp =  0.00214

 Side 1  free  transition at x/c =  0.2877   39
 Side 2  free  transition at x/c =  0.8667   70

 246   rms: 0.3727E+02   max: -.6407E+03   C at   70  2   RLX: 0.001
       a =  3.000      CL =  0.3984
      Cm =  0.0845     CD =  0.00955   =>   CDf =  0.00731    CDp =  0.00224

 Side 1  free  transition at x/c =  0.2877   39
 Side 2  free  transition at x/c =  0.8760   70

 247   rms: 0.1638E+03   max: -.2643E+04   C at   70  2   RLX: 0.000
       a =  3.000      CL =  0.3988
      Cm =  0.0843     CD =  0.00955   =>   CDf =  0.00734    CDp =  0.00220

 Side 1  free  transition at x/c =  0.2877   39
 Side 2  free  transition at x/c =  0.8845   71

 248   rms: 0.2127E+02   max: 0.3580E+03   C at   71  2   RLX: 0.004
       a =  3.000      CL =  0.3972
      Cm =  0.0849     CD =  0.00956   =>   CDf =  0.00739    CDp =  0.00216

 Side 1  free  transition at x/c =  0.2877   39
 Side 2  free  transition at x/c =  0.8692   70

 249   rms: 0.3758E+02   max: -.6364E+03   C at   70  2   RLX: 0.001
       a =  3.000      CL =  0.3964
      Cm =  0.0856     CD =  0.00955   =>   CDf =  0.00731    CDp =  0.00224

 Side 1  free  transition at x/c =  0.2877   39
 Side 2  free  transition at x/c =  0.8783   70

 250   rms: 0.1896E+03   max: -.3022E+04   C at   70  2   RLX: 0.000
       a =  3.000      CL =  0.3968
      Cm =  0.0855     CD =  0.00954   =>   CDf =  0.00733    CDp =  0.00221

 Side 1  free  transition at x/c =  0.2877   39
 Side 2  free  transition at x/c =  0.8868   71

 251   rms: 0.1984E+02   max: 0.3285E+03   C at   71  2   RLX: 0.005
       a =  3.000      CL =  0.3954
      Cm =  0.0860     CD =  0.00955   =>   CDf =  0.00737    CDp =  0.00218

 Side 1  free  transition at x/c =  0.2877   39
 Side 2  free  transition at x/c =  0.8736   70

 252   rms: 0.4387E+02   max: -.7228E+03   C at   70  2   RLX: 0.001
       a =  3.000      CL =  0.3948
      Cm =  0.0865     CD =  0.00954   =>   CDf =  0.00730    CDp =  0.00224

 Side 1  free  transition at x/c =  0.2877   39
 Side 2  free  transition at x/c =  0.8824   70

 253   rms: 0.1111E+04   max: -.1731E+05   C at   70  2   RLX: 0.000
       a =  3.000      CL =  0.3953
      Cm =  0.0863     CD =  0.00954   =>   CDf =  0.00732    CDp =  0.00221

 Side 1  free  transition at x/c =  0.2877   39
 Side 2  free  transition at x/c =  0.8906   71

 254   rms: 0.1632E+02   max: 0.2600E+03   C at   71  2   RLX: 0.006
       a =  3.000      CL =  0.3940
      Cm =  0.0868     CD =  0.00954   =>   CDf =  0.00734    CDp =  0.00220

 Side 1  free  transition at x/c =  0.2877   39
 Side 2  free  transition at x/c =  0.8804   70

 255   rms: 0.7336E+02   max: -.1159E+04   C at   70  2   RLX: 0.000
       a =  3.000      CL =  0.3939
      Cm =  0.0870     CD =  0.00953   =>   CDf =  0.00729    CDp =  0.00224

 Side 1  free  transition at x/c =  0.2877   39
 Side 2  free  transition at x/c =  0.8889   71

 256   rms: 0.2646E+02   max: 0.4291E+03   C at   71  2   RLX: 0.003
       a =  3.000      CL =  0.3928
      Cm =  0.0875     CD =  0.00954   =>   CDf =  0.00730    CDp =  0.00224

 Side 1  free  transition at x/c =  0.2877   39
 Side 2  free  transition at x/c =  0.8773   70

 257   rms: 0.4252E+02   max: -.6857E+03   C at   70  2   RLX: 0.001
       a =  3.000      CL =  0.3927
      Cm =  0.0876     CD =  0.00953   =>   CDf =  0.00728    CDp =  0.00225

 Side 1  free  transition at x/c =  0.2877   39
 Side 2  free  transition at x/c =  0.8860   71

 258   rms: 0.5658E+02   max: 0.9437E+03   C at   71  2   RLX: 0.002
       a =  3.000      CL =  0.3917
      Cm =  0.0880     CD =  0.00954   =>   CDf =  0.00729    CDp =  0.00226

 Side 1  free  transition at x/c =  0.2877   39
 Side 2  free  transition at x/c =  0.8719   70

 259   rms: 0.2957E+02   max: -.4940E+03   C at   70  2   RLX: 0.001
       a =  3.000      CL =  0.3916
      Cm =  0.0882     CD =  0.00953   =>   CDf =  0.00728    CDp =  0.00225

 Side 1  free  transition at x/c =  0.2877   39
 Side 2  free  transition at x/c =  0.8811   70

 260   rms: 0.6093E+02   max: -.9601E+03   C at   70  2   RLX: 0.001
       a =  3.000      CL =  0.3919
      Cm =  0.0881     CD =  0.00952   =>   CDf =  0.00729    CDp =  0.00224

 Side 1  free  transition at x/c =  0.2877   39
 Side 2  free  transition at x/c =  0.8897   71

 261   rms: 0.3055E+02   max: 0.4907E+03   C at   71  2   RLX: 0.003
       a =  3.000      CL =  0.3908
      Cm =  0.0885     CD =  0.00954   =>   CDf =  0.00730    CDp =  0.00224

 Side 1  free  transition at x/c =  0.2877   39
 Side 2  free  transition at x/c =  0.8787   70

 262   rms: 0.4102E+02   max: -.6568E+03   C at   70  2   RLX: 0.001
       a =  3.000      CL =  0.3909
      Cm =  0.0886     CD =  0.00952   =>   CDf =  0.00728    CDp =  0.00224

 Side 1  free  transition at x/c =  0.2877   39
 Side 2  free  transition at x/c =  0.8875   71

 263   rms: 0.5918E+02   max: 0.9725E+03   C at   71  2   RLX: 0.002
       a =  3.000      CL =  0.3899
      Cm =  0.0890     CD =  0.00954   =>   CDf =  0.00729    CDp =  0.00225

 Side 1  free  transition at x/c =  0.2877   39
 Side 2  free  transition at x/c =  0.8747   70

 264   rms: 0.3084E+02   max: -.5066E+03   C at   70  2   RLX: 0.001
       a =  3.000      CL =  0.3898
      Cm =  0.0892     CD =  0.00952   =>   CDf =  0.00728    CDp =  0.00224

 Side 1  free  transition at x/c =  0.2877   39
 Side 2  free  transition at x/c =  0.8839   71

 265   rms: 0.9300E+03   max: -.1581E+05   C at   71  2   RLX: 0.000
       a =  3.000      CL =  0.3901
      Cm =  0.0891     CD =  0.00951   =>   CDf =  0.00729    CDp =  0.00223

 Side 1  free  transition at x/c =  0.2877   39
 Side 2  free  transition at x/c =  0.8892   71

 266   rms: 0.4316E+02   max: 0.6967E+03   C at   71  2   RLX: 0.002
       a =  3.000      CL =  0.3893
      Cm =  0.0893     CD =  0.00953   =>   CDf =  0.00730    CDp =  0.00223

 Side 1  free  transition at x/c =  0.2877   39
 Side 2  free  transition at x/c =  0.8777   70

 267   rms: 0.3554E+02   max: -.5729E+03   C at   70  2   RLX: 0.001
       a =  3.000      CL =  0.3893
      Cm =  0.0895     CD =  0.00952   =>   CDf =  0.00728    CDp =  0.00223

 Side 1  free  transition at x/c =  0.2877   39
 Side 2  free  transition at x/c =  0.8868   71

 268   rms: 0.1179E+03   max: 0.1952E+04   C at   71  2   RLX: 0.001
       a =  3.000      CL =  0.3883
      Cm =  0.0899     CD =  0.00953   =>   CDf =  0.00729    CDp =  0.00224

 Side 1  free  transition at x/c =  0.2878   39
 Side 2  free  transition at x/c =  0.8734   70

 269   rms: 0.2784E+02   max: -.4614E+03   C at   70  2   RLX: 0.001
       a =  3.000      CL =  0.3882
      Cm =  0.0900     CD =  0.00952   =>   CDf =  0.00729    CDp =  0.00222

 Side 1  free  transition at x/c =  0.2877   39
 Side 2  free  transition at x/c =  0.8828   71

 270   rms: 0.1157E+03   max: -.1983E+04   C at   71  2   RLX: 0.000
       a =  3.000      CL =  0.3886
      Cm =  0.0899     CD =  0.00951   =>   CDf =  0.00729    CDp =  0.00222

 Side 1  free  transition at x/c =  0.2877   39
 Side 2  free  transition at x/c =  0.8886   71

 271   rms: 0.7064E+02   max: 0.1148E+04   C at   71  2   RLX: 0.001
       a =  3.000      CL =  0.3878
      Cm =  0.0902     CD =  0.00953   =>   CDf =  0.00730    CDp =  0.00222

 Side 1  free  transition at x/c =  0.2877   39
 Side 2  free  transition at x/c =  0.8767   70

 272   rms: 0.3127E+02   max: -.5078E+03   C at   70  2   RLX: 0.001
       a =  3.000      CL =  0.3877
      Cm =  0.0904     CD =  0.00951   =>   CDf =  0.00730    CDp =  0.00222

 Side 1  free  transition at x/c =  0.2877   39
 Side 2  free  transition at x/c =  0.8860   71

 273   rms: 0.6600E+04   max: 0.1102E+06   C at   71  2   RLX: 0.000
       a =  3.000      CL =  0.3871
      Cm =  0.0907     CD =  0.00952   =>   CDf =  0.00730    CDp =  0.00222

 Side 1  free  transition at x/c =  0.2877   39
 Side 2  free  transition at x/c =  0.8780   70

 274   rms: 0.3175E+02   max: -.5120E+03   C at   70  2   RLX: 0.001
       a =  3.000      CL =  0.3872
      Cm =  0.0907     CD =  0.00951   =>   CDf =  0.00730    CDp =  0.00221

 Side 1  free  transition at x/c =  0.2877   39
 Side 2  free  transition at x/c =  0.8873   71

 275   rms: 0.4971E+03   max: 0.8190E+04   C at   71  2   RLX: 0.000
       a =  3.000      CL =  0.3862
      Cm =  0.0912     CD =  0.00953   =>   CDf =  0.00730    CDp =  0.00222

 Side 1  free  transition at x/c =  0.2878   39
 Side 2  free  transition at x/c =  0.8744   70

 276   rms: 0.2597E+02   max: -.4285E+03   C at   70  2   RLX: 0.001
       a =  3.000      CL =  0.3861
      Cm =  0.0914     CD =  0.00951   =>   CDf =  0.00730    CDp =  0.00220

 Side 1  free  transition at x/c =  0.2877   39
 Side 2  free  transition at x/c =  0.8840   71

 277   rms: 0.8274E+02   max: -.1407E+04   C at   71  2   RLX: 0.000
       a =  3.000      CL =  0.3863
      Cm =  0.0913     CD =  0.00950   =>   CDf =  0.00731    CDp =  0.00219

 Side 1  free  transition at x/c =  0.2877   39
 Side 2  free  transition at x/c =  0.8893   71

 278   rms: 0.1501E+03   max: 0.2421E+04   C at   71  2   RLX: 0.001
       a =  3.000      CL =  0.3855
      Cm =  0.0916     CD =  0.00952   =>   CDf =  0.00732    CDp =  0.00220

 Side 1  free  transition at x/c =  0.2878   39
 Side 2  free  transition at x/c =  0.8779   70

 279   rms: 0.2829E+02   max: -.4568E+03   C at   70  2   RLX: 0.001
       a =  3.000      CL =  0.3854
      Cm =  0.0918     CD =  0.00950   =>   CDf =  0.00731    CDp =  0.00220

 Side 1  free  transition at x/c =  0.2877   39
 Side 2  free  transition at x/c =  0.8874   71

 280   rms: 0.2324E+03   max: -.3826E+04   C at   71  2   RLX: 0.000
       a =  3.000      CL =  0.3853
      Cm =  0.0919     CD =  0.00949   =>   CDf =  0.00732    CDp =  0.00218

 Side 1  free  transition at x/c =  0.2877   39
 Side 2  free  transition at x/c =  0.8914   71

 281   rms: 0.8719E+02   max: 0.1348E+04   C at   71  2   RLX: 0.001
       a =  3.000      CL =  0.3848
      Cm =  0.0921     CD =  0.00951   =>   CDf =  0.00732    CDp =  0.00219

 Side 1  free  transition at x/c =  0.2877   39
 Side 2  free  transition at x/c =  0.8816   70

 282   rms: 0.3198E+02   max: -.5052E+03   C at   70  2   RLX: 0.001
       a =  3.000      CL =  0.3851
      Cm =  0.0920     CD =  0.00950   =>   CDf =  0.00731    CDp =  0.00219

 Side 1  free  transition at x/c =  0.2877   39
 Side 2  free  transition at x/c =  0.8908   71

 283   rms: 0.1220E+03   max: 0.1898E+04   C at   71  2   RLX: 0.001
       a =  3.000      CL =  0.3839
      Cm =  0.0927     CD =  0.00951   =>   CDf =  0.00731    CDp =  0.00220

 Side 1  free  transition at x/c =  0.2877   39
 Side 2  free  transition at x/c =  0.8806   70

 284   rms: 0.2907E+02   max: -.4620E+03   C at   70  2   RLX: 0.001
       a =  3.000      CL =  0.3841
      Cm =  0.0926     CD =  0.00950   =>   CDf =  0.00731    CDp =  0.00219

 Side 1  free  transition at x/c =  0.2877   39
 Side 2  free  transition at x/c =  0.8899   71

 285   rms: 0.1688E+03   max: -.2695E+04   C at   71  2   RLX: 0.000
       a =  3.000      CL =  0.3837
      Cm =  0.0930     CD =  0.00948   =>   CDf =  0.00731    CDp =  0.00217

 Side 1  free  transition at x/c =  0.2877   39
 Side 2  free  transition at x/c =  0.8933   71

 286   rms: 0.1341E+03   max: -.2029E+04   C at   71  2   RLX: 0.000
       a =  3.000      CL =  0.3838
      Cm =  0.0929     CD =  0.00948   =>   CDf =  0.00731    CDp =  0.00217

 Side 1  free  transition at x/c =  0.2877   39
 Side 2  free  transition at x/c =  0.8959   71

 287   rms: 0.1954E+02   max: -.2878E+03   C at   71  2   RLX: 0.002
       a =  3.000      CL =  0.3838
      Cm =  0.0930     CD =  0.00947   =>   CDf =  0.00729    CDp =  0.00218

 Side 1  free  transition at x/c =  0.2877   39
 Side 2  free  transition at x/c =  0.8984   71

 288   rms: 0.4343E+01   max: -.6140E+02   C at   71  2   RLX: 0.008
       a =  3.000      CL =  0.3839
      Cm =  0.0928     CD =  0.00946   =>   CDf =  0.00727    CDp =  0.00219

 Side 1  free  transition at x/c =  0.2877   39
 Side 2  free  transition at x/c =  0.9013   72

 289   rms: 0.1520E+01   max: 0.1814E+02   D at   76  2   RLX: 0.030
       a =  3.000      CL =  0.3845
      Cm =  0.0919     CD =  0.00945   =>   CDf =  0.00724    CDp =  0.00221

 Side 1  free  transition at x/c =  0.2876   39
 Side 2  free  transition at x/c =  0.9128   72

 290   rms: 0.1046E+02   max: 0.1528E+03   C at   72  2   RLX: 0.010
       a =  3.000      CL =  0.3842
      Cm =  0.0912     CD =  0.00946   =>   CDf =  0.00708    CDp =  0.00238

 Side 1  free  transition at x/c =  0.2877   39
 Side 2  free  transition at x/c =  0.8901   71

 291   rms: 0.1128E+02   max: -.1702E+03   C at   71  2   RLX: 0.003
       a =  3.000      CL =  0.3862
      Cm =  0.0899     CD =  0.00947   =>   CDf =  0.00723    CDp =  0.00224

 Side 1  free  transition at x/c =  0.2876   39
 Side 2  free  transition at x/c =  0.8935   71

 292   rms: 0.9944E+02   max: -.1485E+04   C at   71  2   RLX: 0.000
       a =  3.000      CL =  0.3865
      Cm =  0.0897     CD =  0.00947   =>   CDf =  0.00719    CDp =  0.00228

 Side 1  free  transition at x/c =  0.2876   39
 Side 2  free  transition at x/c =  0.8963   71

 293   rms: 0.1803E+03   max: 0.2639E+04   C at   71  2   RLX: 0.001
       a =  3.000      CL =  0.3861
      Cm =  0.0897     CD =  0.00948   =>   CDf =  0.00716    CDp =  0.00232

 Side 1  free  transition at x/c =  0.2877   39
 Side 2  free  transition at x/c =  0.8881   71

 294   rms: 0.1272E+02   max: -.2021E+03   C at   71  2   RLX: 0.002
       a =  3.000      CL =  0.3865
      Cm =  0.0895     CD =  0.00947   =>   CDf =  0.00723    CDp =  0.00225

 Side 1  free  transition at x/c =  0.2877   39
 Side 2  free  transition at x/c =  0.8923   71

 295   rms: 0.7475E+02   max: -.1131E+04   C at   71  2   RLX: 0.000
       a =  3.000      CL =  0.3868
      Cm =  0.0894     CD =  0.00947   =>   CDf =  0.00719    CDp =  0.00228

 Side 1  free  transition at x/c =  0.2876   39
 Side 2  free  transition at x/c =  0.8954   71

 296   rms: 0.3477E+03   max: 0.5120E+04   C at   71  2   RLX: 0.000
       a =  3.000      CL =  0.3864
      Cm =  0.0894     CD =  0.00948   =>   CDf =  0.00716    CDp =  0.00231

 Side 1  free  transition at x/c =  0.2877   39
 Side 2  free  transition at x/c =  0.8869   71

 297   rms: 0.1178E+02   max: -.1900E+03   C at   71  2   RLX: 0.003
       a =  3.000      CL =  0.3868
      Cm =  0.0892     CD =  0.00947   =>   CDf =  0.00723    CDp =  0.00225

 Side 1  free  transition at x/c =  0.2877   39
 Side 2  free  transition at x/c =  0.8914   71

 298   rms: 0.5683E+02   max: -.8678E+03   C at   71  2   RLX: 0.001
       a =  3.000      CL =  0.3871
      Cm =  0.0891     CD =  0.00947   =>   CDf =  0.00720    CDp =  0.00228

 Side 1  free  transition at x/c =  0.2876   39
 Side 2  free  transition at x/c =  0.8947   71

 299   rms: 0.5371E+04   max: -.7950E+05   C at   71  2   RLX: 0.000
       a =  3.000      CL =  0.3872
      Cm =  0.0891     CD =  0.00947   =>   CDf =  0.00717    CDp =  0.00231

 Side 1  free  transition at x/c =  0.2876   39
 Side 2  free  transition at x/c =  0.8971   71

 300   rms: 0.8759E+02   max: 0.1278E+04   C at   71  2   RLX: 0.001
       a =  3.000      CL =  0.3867
      Cm =  0.0890     CD =  0.00948   =>   CDf =  0.00714    CDp =  0.00234

 Side 1  free  transition at x/c =  0.2877   39
 Side 2  free  transition at x/c =  0.8887   71

 301   rms: 0.1672E+02   max: -.2645E+03   C at   71  2   RLX: 0.002
       a =  3.000      CL =  0.3870
      Cm =  0.0889     CD =  0.00947   =>   CDf =  0.00721    CDp =  0.00226

 Side 1  free  transition at x/c =  0.2876   39
 Side 2  free  transition at x/c =  0.8927   71

 302   rms: 0.1610E+03   max: -.2429E+04   C at   71  2   RLX: 0.000
       a =  3.000      CL =  0.3875
      Cm =  0.0887     CD =  0.00947   =>   CDf =  0.00718    CDp =  0.00230

 Side 1  free  transition at x/c =  0.2876   39
 Side 2  free  transition at x/c =  0.8958   71

 303   rms: 0.1206E+03   max: 0.1773E+04   C at   71  2   RLX: 0.001
       a =  3.000      CL =  0.3870
      Cm =  0.0887     CD =  0.00948   =>   CDf =  0.00715    CDp =  0.00233

 Side 1  free  transition at x/c =  0.2877   39
 Side 2  free  transition at x/c =  0.8871   71

 304   rms: 0.1506E+02   max: -.2429E+03   C at   71  2   RLX: 0.002
       a =  3.000      CL =  0.3874
      Cm =  0.0885     CD =  0.00948   =>   CDf =  0.00721    CDp =  0.00226

 Side 1  free  transition at x/c =  0.2877   39
 Side 2  free  transition at x/c =  0.8916   71

 305   rms: 0.9163E+02   max: -.1399E+04   C at   71  2   RLX: 0.000
       a =  3.000      CL =  0.3877
      Cm =  0.0884     CD =  0.00947   =>   CDf =  0.00718    CDp =  0.00229
 VISCAL:  Convergence failed
      9.000    6.9266   0.009475   0.008787   0.001714  -0.007073    0.2877     #

 Sequence halted since previous  4 points did not converge
 Last-converged  alpha =   1.000    CL =   0.94940

.OPERva   c>  
 Polar accumulation disabled

.OPERv   c>  
 XFOIL   c>  